
  EPA STORM WATER MANAGEMENT MODEL - VERSION 5.2 (Build 5.2.2)
  ------------------------------------------------------------

  ﻿[TITLE] 
  Zhonggang	drainage	system							 
  5yr24hr.	design	typhoon	rainfall						 
  WARNING 04: minimum elevation drop used for Conduit 4335-10.1
  WARNING 04: minimum elevation drop used for Conduit 4435-818.1
  WARNING 04: minimum elevation drop used for Conduit 4435-822.1
  WARNING 04: minimum elevation drop used for Conduit 05640601.2
  WARNING 04: minimum elevation drop used for Conduit 05640604.1
  
  *************
  Element Count
  *************
  Number of rain gages ...... 1
  Number of subcatchments ... 94
  Number of nodes ........... 133
  Number of links ........... 139
  Number of pollutants ...... 0
  Number of land uses ....... 0
  
  
  ****************
  Raingage Summary
  ****************
                                                      Data       Recording
  Name                 Data Source                    Type       Interval 
  ------------------------------------------------------------------------
  GAGE1                Typhoon_TALIM                  INTENSITY   60 min.
  
  
  ********************
  Subcatchment Summary
  ********************
  Name                       Area     Width   %Imperv    %Slope Rain Gage            Outlet              
  -----------------------------------------------------------------------------------------------------------
  1                          2.79    218.00     90.00    2.6000 GAGE1                4335-826            
  2                          0.27     68.00     90.00   31.8000 GAGE1                4335-824            
  3                          0.32     73.00     90.00    0.1000 GAGE1                4335-823            
  4                          1.70    170.00     90.00    0.1000 GAGE1                4335-829            
  5                          0.55     97.00     90.00    0.8000 GAGE1                4335-821            
  6                          0.44     87.00     90.00    0.8000 GAGE1                4335-820            
  7                          0.25     66.00     90.00    0.4000 GAGE1                4335-819            
  8                          0.28     69.00     90.00    0.7000 GAGE1                4335-818            
  9                          0.42     85.00     80.00    0.5000 GAGE1                4335-817            
  10                         0.84    119.00     90.00    1.7000 GAGE1                4335-12             
  13                         4.56    279.00     60.00    0.2000 GAGE1                4335-811            
  14                         0.47     89.00     90.00    0.6000 GAGE1                4335-830            
  15                        19.80    580.00     50.00    0.4000 GAGE1                4335-831            
  16                         0.63    104.00     80.00    0.7000 GAGE1                4335-828            
  17                         3.19    233.00     30.00   23.7000 GAGE1                4335-09             
  18                         1.35    152.00     50.00    0.4000 GAGE1                4335-07             
  19                         1.39    154.00     50.00    0.1000 GAGE1                4335-06             
  22                         2.26    196.00     50.00    0.2000 GAGE1                4335-03             
  23                         1.61    165.00     50.00    0.1000 GAGE1                4335-13             
  24                         4.90    289.00     90.00    0.3000 GAGE1                4435-833            
  25                         1.21    144.00     90.00    0.5000 GAGE1                4335-808            
  26                         0.26     66.00     90.00    1.1000 GAGE1                4335-807a           
  27                         0.25     65.00     80.00    1.0000 GAGE1                4335-08             
  28                         0.38     80.00     90.00    2.0000 GAGE1                4335-806            
  29                         0.44     86.00     90.00    0.7000 GAGE1                4335-805            
  30                         2.25    196.00     90.00    0.3000 GAGE1                4335-804            
  31                         0.64    105.00     90.00    0.6000 GAGE1                4335-02             
  32                         0.95    127.00     90.00    1.3000 GAGE1                4335-803            
  33                         1.09    136.00     90.00    1.2000 GAGE1                4335-801            
  34                         1.07    135.00     70.00    2.1000 GAGE1                4435-501            
  35                         0.50     92.00     90.00    2.9000 GAGE1                4435-510            
  36                         0.47     90.00     90.00    4.9000 GAGE1                4435-502            
  38                         1.77    173.00     90.00    0.7000 GAGE1                4334-809            
  39                         0.40     82.00     90.00    1.2000 GAGE1                4335-816            
  40                         0.09     38.00     80.00    3.3000 GAGE1                4335-815            
  41                         0.28     68.00     90.00    2.2000 GAGE1                4335-812            
  42                         0.16     52.00     90.00    4.4000 GAGE1                4335-813            
  43                         0.11     44.00     90.00    2.7000 GAGE1                4335-814            
  44                         1.08    135.00     90.00    0.8000 GAGE1                4434-33             
  45                         0.23     63.00     90.00    1.8000 GAGE1                4434-34             
  46                         0.37     79.00     90.00    0.8000 GAGE1                4434-32             
  47                         1.56    163.00     90.00    1.2000 GAGE1                4434-31             
  49                         5.79    314.00     90.00    0.1000 GAGE1                4435-831            
  50                         4.01    261.00     90.00    0.1000 GAGE1                4435-810            
  51                         1.29    148.00     90.00    0.4000 GAGE1                4435-830            
  52                         2.11    189.00     80.00    1.2000 GAGE1                4435-03             
  53                         1.65    168.00     90.00    0.9000 GAGE1                4435-04             
  54                         1.97    183.00     90.00    0.4000 GAGE1                4435-829            
  55                         1.22    144.00     90.00    0.4000 GAGE1                4435-05             
  56                         1.07    135.00     90.00    5.8000 GAGE1                4435-808            
  57                         0.32     74.00     90.00    2.1000 GAGE1                4435-807            
  58                         0.24     64.00     90.00    3.0000 GAGE1                4435-806            
  59                         0.17     54.00     30.00    1.4000 GAGE1                4435-811            
  60                         0.43     85.00     30.00    3.5000 GAGE1                4435-812            
  61                         8.61    383.00     80.00    0.2000 GAGE1                4435-814            
  62                         0.21     59.00     90.00    0.6000 GAGE1                4435-504            
  63                         1.86    178.00     90.00    0.2000 GAGE1                4435-503            
  64                         0.35     77.00     90.00    0.3000 GAGE1                4435-505            
  65                         0.12     46.00     90.00    2.4000 GAGE1                4435-805            
  66                         0.16     52.00     90.00    2.6000 GAGE1                4435-804            
  67                         0.13     47.00     90.00    0.7000 GAGE1                4435-803            
  68                         1.45    157.00     90.00    0.1000 GAGE1                4435-801            
  69                        14.52    497.00     30.00    0.1000 GAGE1                4536-04             
  70                         3.32    237.00     30.00    0.3000 GAGE1                4536-02             
  71                         4.81    286.00     30.00    0.5000 GAGE1                4536-01             
  107                        1.31    149.00     90.00    1.2000 GAGE1                4535-511            
  108                        0.59    100.00     90.00    0.9000 GAGE1                4535-512            
  109                        2.01    185.00     90.00    0.4000 GAGE1                4535-513            
  110                        6.37    329.00     90.00    0.5000 GAGE1                4535-514            
  111                        0.20     59.00     90.00    1.1000 GAGE1                4535-817            
  112                        0.33     75.00     90.00    0.7000 GAGE1                4535-818            
  113                        1.54    162.00     90.00    0.5000 GAGE1                4535-819            
  114                        3.39    240.00     90.00    1.2000 GAGE1                4535-821            
  115                        0.44     86.00     90.00    0.1000 GAGE1                4435-508            
  116                        0.25     65.00     90.00    0.6000 GAGE1                4435-817            
  117                        0.58     99.00     90.00    0.1000 GAGE1                4435-816            
  118                        0.22     61.00     90.00    0.2000 GAGE1                4435-815            
  119                        2.19    193.00     90.00    0.2000 GAGE1                4435-818            
  120                        0.24     64.00     90.00    0.6000 GAGE1                4435-507            
  121                        0.85    120.00     90.00    0.2000 GAGE1                4435-823            
  122                        0.91    124.00     30.00    0.1000 GAGE1                4435-824            
  123                        0.56     98.00     30.00    0.3000 GAGE1                4435-825            
  124                        2.49    206.00     30.00    0.1000 GAGE1                4435-826            
  125                        0.26     67.00     90.00    0.1000 GAGE1                4435-819            
  126                        0.18     55.00     90.00    0.2000 GAGE1                4435-820            
  127                        3.42    241.00     30.00    0.1000 GAGE1                4435-827            
  130                        0.91    124.00     90.00    0.2000 GAGE1                4235-810            
  131                        0.57     99.00     80.00    0.2000 GAGE1                4235-811            
  132                        0.32     74.00     80.00    0.1000 GAGE1                4335-835            
  133                        0.12     46.00     90.00    1.3000 GAGE1                4335-504            
  134                        1.79    174.00     90.00    0.6000 GAGE1                4335-505            
  135                        0.16     52.00     90.00    0.3000 GAGE1                4335-508            
  136                        0.11     44.00     90.00    0.2000 GAGE1                4335-507            
  187                        6.37     73.00     90.00    0.6000 GAGE1                POND3               
  
  
  ************
  Node Summary
  ************
                                           Invert      Max.    Ponded    External
  Name                 Type                 Elev.     Depth      Area    Inflow  
  -------------------------------------------------------------------------------
  4235-810             JUNCTION             13.88      1.76       0.0
  4235-811             JUNCTION             13.59      1.96       0.0
  4334-809             JUNCTION             13.37      1.61       0.0
  4335-01              JUNCTION             12.54      3.55       0.0
  4335-02              JUNCTION             12.40      3.30       0.0
  4335-03              JUNCTION             12.29      3.07       0.0
  4335-04              JUNCTION             12.24      3.22       0.0
  4335-05              JUNCTION             12.32      2.94       0.0
  4335-06              JUNCTION             12.02      2.95       0.0
  4335-07              JUNCTION             12.11      2.78       0.0
  4335-08              JUNCTION             11.88      2.82       0.0
  4335-09              JUNCTION             12.50      3.18       0.0
  4335-10              JUNCTION             11.90      2.10       0.0
  4335-11              JUNCTION             11.90      2.46       0.0
  4335-12              JUNCTION             11.10      3.03       0.0
  4335-13              JUNCTION             13.47      2.22       0.0
  4335-14              JUNCTION             13.00      2.70       0.0
  4335-504             JUNCTION             13.17      2.61       0.0
  4335-505             JUNCTION             13.00      3.03       0.0
  4335-506             JUNCTION             13.95      2.14       0.0
  4335-507             JUNCTION             13.95      2.12       0.0
  4335-508             JUNCTION             14.14      1.84       0.0
  4335-801             JUNCTION             11.94      2.99       0.0
  4335-802             JUNCTION             11.32      4.38       0.0
  4335-803             JUNCTION             12.42      3.69       0.0
  4335-804             JUNCTION             12.13      2.92       0.0
  4335-805             JUNCTION             11.82      2.94       0.0
  4335-806             JUNCTION             11.60      3.57       0.0
  4335-807             JUNCTION             12.60      2.21       0.0
  4335-807a            JUNCTION             12.50      2.31       0.0
  4335-808             JUNCTION             12.26      1.88       0.0
  4335-809             JUNCTION             11.27      2.61       0.0
  4335-811             JUNCTION             11.07      2.71       0.0
  4335-812             JUNCTION             13.79      1.56       0.0
  4335-813             JUNCTION             11.79      4.73       0.0
  4335-814             JUNCTION             12.84      4.73       0.0
  4335-815             JUNCTION             12.82      3.98       0.0
  4335-816             JUNCTION             12.49      2.54       0.0
  4335-817             JUNCTION             12.14      2.50       0.0
  4335-818             JUNCTION             11.79      2.56       0.0
  4335-819             JUNCTION             11.71      2.43       0.0
  4335-820             JUNCTION             11.54      2.43       0.0
  4335-821             JUNCTION             11.37      2.28       0.0
  4335-823             JUNCTION             11.42      2.99       0.0
  4335-824             JUNCTION             10.72      3.69       0.0
  4335-825             JUNCTION             10.96      2.74       0.0
  4335-826             JUNCTION             10.96      2.55       0.0
  4335-827             JUNCTION             12.32      3.22       0.0
  4335-828             JUNCTION             12.63      3.06       0.0
  4335-829             JUNCTION             12.49      3.17       0.0
  4335-830             JUNCTION             12.98      2.80       0.0
  4335-831             JUNCTION             13.36      2.44       0.0
  4335-835             JUNCTION             13.56      2.16       0.0
  4336-801             JUNCTION             14.06      1.56       0.0
  4434-31              JUNCTION             14.19      3.16       0.0
  4434-32              JUNCTION             14.08      2.45       0.0
  4434-33              JUNCTION             13.92      2.51       0.0
  4434-34              JUNCTION             13.82      2.12       0.0
  4435-03              JUNCTION             15.16      2.76       0.0
  4435-04              JUNCTION             14.91      2.22       0.0
  4435-05              JUNCTION             13.04      3.46       0.0
  4435-501             JUNCTION             17.32      2.15       0.0
  4435-502             JUNCTION             16.13      2.21       0.0
  4435-503             JUNCTION             14.65      1.85       0.0
  4435-504             JUNCTION             14.59      1.82       0.0
  4435-505             JUNCTION             14.47      1.79       0.0
  4435-506             JUNCTION             14.07      2.09       0.0
  4435-507             JUNCTION             14.85      2.22       0.0
  4435-508             JUNCTION             14.85      2.02       0.0
  4435-509             JUNCTION             14.89      1.92       0.0
  4435-510             JUNCTION             16.75      2.25       0.0
  4435-801             JUNCTION             17.11      4.46       0.0
  4435-802             JUNCTION             16.54      5.11       0.0
  4435-803             JUNCTION             16.22      5.53       0.0
  4435-804             JUNCTION             16.75      4.61       0.0
  4435-805             JUNCTION             16.17      3.90       0.0
  4435-806             JUNCTION             15.98      2.93       0.0
  4435-807             JUNCTION             13.76      2.94       0.0
  4435-808             JUNCTION             13.84      2.26       0.0
  4435-808a            JUNCTION             12.98      3.22       0.0
  4435-809             JUNCTION             12.95      2.42       0.0
  4435-810             JUNCTION             12.91      2.58       0.0
  4435-811             JUNCTION             13.62      2.64       0.0
  4435-812             JUNCTION             14.55      2.70       0.0
  4435-813             JUNCTION             14.37      3.17       0.0
  4435-814             JUNCTION             14.60      3.02       0.0
  4435-815             JUNCTION             14.21      2.56       0.0
  4435-816             JUNCTION             14.67      2.03       0.0
  4435-817             JUNCTION             14.86      1.93       0.0
  4435-818             JUNCTION             14.27      2.36       0.0
  4435-819             JUNCTION             14.27      2.32       0.0
  4435-820             JUNCTION             14.10      2.50       0.0
  4435-822             JUNCTION             13.89      3.03       0.0
  4435-823             JUNCTION             13.63      2.83       0.0
  4435-821             JUNCTION             14.01      2.69       0.0
  4435-824             JUNCTION             13.83      2.78       0.0
  4435-825             JUNCTION             14.08      2.36       0.0
  4435-826             JUNCTION             14.53      1.94       0.0
  4435-829             JUNCTION             13.78      2.93       0.0
  4435-830             JUNCTION             12.85      2.63       0.0
  4435-827             JUNCTION             14.56      1.93       0.0
  4435-831             JUNCTION             12.27      2.70       0.0
  4435-832             JUNCTION             13.74      1.88       0.0
  4435-833             JUNCTION             13.91      1.51       0.0
  4535-511             JUNCTION             17.50      2.02       0.0
  4535-512             JUNCTION             16.48      2.19       0.0
  4535-513             JUNCTION             16.28      1.86       0.0
  4535-514             JUNCTION             15.49      2.43       0.0
  4535-817             JUNCTION             14.83      3.03       0.0
  4535-818             JUNCTION             14.65      2.81       0.0
  4535-819             JUNCTION             14.54      2.36       0.0
  4535-820             JUNCTION             14.83      2.38       0.0
  4535-821             JUNCTION             14.82      2.43       0.0
  4535-822             JUNCTION             14.79      2.22       0.0
  4535-823             JUNCTION             14.83      2.27       0.0
  4535-F551            JUNCTION             15.81      2.19       0.0
  4536-01              JUNCTION             18.49      2.03       0.0
  4536-02              JUNCTION             17.52      3.56       0.0
  4536-03              JUNCTION             17.60      3.62       0.0
  4536-04              JUNCTION             17.13      4.37       0.0
  F4335-825a           JUNCTION             10.88      2.62       0.0
  F4335-825b           JUNCTION             11.22      2.78       0.0
  F4435-05a            JUNCTION             13.00      3.20       0.0
  F4435-816a           JUNCTION             14.24      2.46       0.0
  MH04649601           JUNCTION             12.44      4.39       0.0
  MH04649602           JUNCTION             12.09      4.85       0.0
  MH04649701           JUNCTION             12.74      3.49       0.0
  MH05640601           JUNCTION             10.72      5.28       0.0
  MH05640604           JUNCTION             14.70      2.15       0.0
  MH05640605           JUNCTION             11.70      5.50       0.0
  MH05647801           JUNCTION             12.81      2.39       0.0
  POND3                JUNCTION             10.25      6.60       0.0
  MH05640504           OUTFALL              14.70      1.52       0.0
  
  
  ************
  Link Summary
  ************
  Name             From Node        To Node          Type            Length    %Slope Roughness
  ---------------------------------------------------------------------------------------------
  4435-510.1       4435-510         4435-502         CONDUIT           23.0    2.5661    0.0150
  4435-505.1       4435-505         4435-506         CONDUIT           31.0    1.2904    0.0150
  4435-504.1       4435-504         4435-505         CONDUIT           26.0    0.6154    0.0150
  4435-503.1       4435-503         4435-504         CONDUIT           46.0    0.1304    0.0150
  4435-501.1       4435-501         4435-510         CONDUIT           22.0    2.5918    0.0150
  4335-02.1        4335-02          4335-03          CONDUIT           59.0    0.1864    0.0150
  4335-03.1        4335-03          4335-04          CONDUIT           54.0    0.0926    0.0150
  4335-04.1        4335-04          4335-05          CONDUIT           35.0   -0.2286    0.0150
  4335-05.1        4335-05          4335-06          CONDUIT           28.0    1.0715    0.0150
  4335-06.1        4335-06          4335-07          CONDUIT           56.0   -0.1607    0.0150
  4335-07.1        4335-07          4335-08          CONDUIT           52.0    0.4423    0.0150
  4335-10.1        4335-10          4335-11          CONDUIT          116.0    0.0003    0.0150
  4335-11.1        4335-11          4335-12          CONDUIT           36.0    1.2501    0.0150
  4335-13.1        4335-13          4335-14          CONDUIT           61.0    0.7705    0.0150
  4335-01.1        4335-01          4335-02          CONDUIT           76.0    0.1842    0.0150
  4434-31.1        4434-31          4434-32          CONDUIT           68.0    0.0882    0.0150
  4434-32.1        4434-32          4434-33          CONDUIT           12.0    1.3335    0.0150
  4434-33.1        4434-33          4434-34          CONDUIT           61.0    0.5246    0.0150
  4435-03.1        4435-03          4435-04          CONDUIT           64.0    0.3438    0.0150
  4435-04.1        4435-04          4435-05          CONDUIT           74.0    1.9058    0.0150
  4536-01.1        4536-01          4536-02          CONDUIT          112.0    0.8661    0.0150
  4536-02.1        4536-02          4536-03          CONDUIT           52.0   -0.3269    0.0150
  4536-03.1        4536-03          4536-04          CONDUIT           80.0    0.5875    0.0150
  4334-809.1       4334-809         4335-812         CONDUIT           55.0   -0.7637    0.0150
  4335-09.1        4335-09          4335-827         CONDUIT            9.0    1.1112    0.0150
  4335-12.1        4335-12          4335-826         CONDUIT           36.0    0.2222    0.0150
  4335-801.1       4335-801         4335-802         CONDUIT           65.0    0.9539    0.3000
  4335-802.1       4335-802         4335-803         CONDUIT           87.0   -1.2645    0.0150
  4335-803.1       4335-803         4335-804         CONDUIT           81.0    0.3580    0.0150
  4335-804.1       4335-804         4335-805         CONDUIT          101.0    0.3069    0.0150
  4335-805.1       4335-805         4335-806         CONDUIT           61.0   -2.1480    0.0150
  4335-806.1       4335-806         4335-807a        CONDUIT           18.0    0.3889    0.0150
  4335-808.1       4335-808         4335-809         CONDUIT           54.0    1.8336    0.0150
  4335-809.1       4335-809         4335-811         CONDUIT           19.0    1.0527    0.0150
  4335-811.1       4335-811         4335-825         CONDUIT           46.0    0.2391    0.0150
  4335-812.1       4335-812         4335-813         CONDUIT           54.0    3.7062    0.0150
  4335-813.1       4335-813         4335-814         CONDUIT           24.0   -4.3792    0.0150
  4335-814.1       4335-814         4335-815         CONDUIT           29.0    0.0690    0.0150
  4335-815.1       4335-815         4335-816         CONDUIT           54.0    0.6111    0.0150
  4335-816.1       4335-816         4335-817         CONDUIT           32.0    1.0938    0.0150
  4335-817.1       4335-817         4335-818         CONDUIT           55.0    0.6364    0.0150
  4335-818.1       4335-818         4335-819         CONDUIT           32.0    0.2500    0.0150
  4335-819.1       4335-819         4335-820         CONDUIT           42.0    0.4048    0.0150
  4335-820.1       4335-820         4335-821         CONDUIT           39.0    0.4359    0.0150
  4335-823.1       4335-823         4335-824         CONDUIT           59.0    1.1865    0.0150
  4335-826.1       4335-826         F4335-825a       CONDUIT            7.0    1.1429    0.0150
  4335-827.1       4335-827         4335-806         CONDUIT           36.0   -2.5286    0.0150
  4335-828.1       4335-828         4335-827         CONDUIT           22.0    1.3183    0.0150
  4335-829.1       4335-829         4335-828         CONDUIT           54.0   -0.3148    0.0150
  4335-830.1       4335-830         4335-829         CONDUIT           19.0    2.4744    0.0150
  4335-831.1       4335-831         4335-830         CONDUIT            5.0    4.8055    0.0150
  4336-801.1       4336-801         4435-833         CONDUIT           62.0    0.2419    0.0150
  4435-801.1       4435-801         4435-802         CONDUIT           71.0    1.2114    0.0150
  4435-802.1       4435-802         4435-803         CONDUIT           53.0    0.6038    0.0150
  4435-803.1       4435-803         4435-804         CONDUIT           58.0    0.0172    0.0150
  4435-804.1       4435-804         4435-805         CONDUIT           50.0    1.0401    0.0150
  4435-805.1       4435-805         4435-806         CONDUIT           48.0    0.1250    0.0150
  4435-806.1       4435-806         4435-807         CONDUIT           73.0    3.0425    0.0150
  4435-809.1       4435-809         4435-810         CONDUIT           74.0    0.0541    0.0015
  4435-811.1       4435-811         4435-810         CONDUIT           54.0    0.0185    0.0150
  4435-812.1       4435-812         4435-811         CONDUIT           28.0    3.3233    0.0150
  4435-813.1       4435-813         4435-812         CONDUIT           68.0   -0.2647    0.0150
  4435-814.1       4435-814         4435-813         CONDUIT           46.0    0.5000    0.0150
  4435-829.1       4435-829         4435-05          CONDUIT           56.0   -0.0536    0.0150
  4435-831.1       4435-831         4335-801         CONDUIT           60.0    0.5500    0.3000
  4435-833.1       4435-833         4435-832         CONDUIT           62.0    0.2742    0.0150
  4536-04.1        4536-04          4435-801         CONDUIT           73.0    0.4110    0.0150
  4335-08.1        4335-08          4335-806         CONDUIT           48.0    0.5833    0.0150
  4435-830.1       4435-830         MH05647801       CONDUIT           64.0    0.0625    0.3000
  4435-05.1        4435-05          F4435-05a        CONDUIT           74.0    0.0541    0.0015
  F4435-05a.1      F4435-05a        4435-808a        CONDUIT           23.0    0.0870    0.0015
  4435-807.1       4435-807         F4435-05a        CONDUIT           24.0    2.1672    0.0150
  4435-808a.1      4435-808a        4435-809         CONDUIT           58.0    0.0517    0.0015
  4435-808.1       4435-808         4435-808a        CONDUIT            2.0    2.0004    0.0150
  4435-506.1       4435-506         4435-808         CONDUIT           11.0    2.0914    0.0150
  4335-807.1       4335-807         4335-807a        CONDUIT            8.0    1.2501    0.0150
  4335-807a.1      4335-807a        4335-808         CONDUIT           62.0    0.3871    0.0150
  4335-821.1       4335-821         F4335-825b       CONDUIT           45.0    0.3333    0.0150
  F4335-825b.1     F4335-825b       4335-823         CONDUIT           13.0   -1.5386    0.0150
  F4335-825a.1     F4335-825a       F4335-825b       CONDUIT           11.0   -1.4547    0.0150
  4335-825.1       4335-825         F4335-825a       CONDUIT           10.0   -1.0001    0.0150
  4434-34.1        4434-34          4334-809         CONDUIT           54.0    0.8334    0.0150
  4335-14.1        4335-14          4335-02          CONDUIT           13.0    1.5386    0.0150
  4435-810.1       4435-810         4435-830         CONDUIT           99.0    0.0606    0.0150
  4435-502.1       4435-502         4335-801         CONDUIT           70.0    5.9965    0.0150
  4335-09.2        4335-09          4335-10          CONDUIT            7.0    8.6031    0.0150
  4535-F551.1      4535-F551        4535-514         CONDUIT           23.0    1.3914    0.0150
  4535-513.1       4535-513         4535-F551        CONDUIT           33.0    1.4244    0.0150
  4535-512.1       4535-512         4535-513         CONDUIT           60.0    0.2667    0.0150
  4535-511.1       4535-511         4535-512         CONDUIT           68.0    1.3972    0.0150
  4435-508.1       4435-508         4435-509         CONDUIT           43.0   -0.9070    0.3000
  4435-507.1       4435-507         4535-823         CONDUIT           38.0    0.0526    0.0150
  4435-507.2       4435-507         4435-508         CONDUIT           36.0    1.4446    0.3000
  4435-509.1       4435-509         4435-817         CONDUIT           31.0    0.0968    0.3000
  4435-815.1       4435-815         F4435-816a       CONDUIT           43.0   -0.0698    0.3000
  4435-817.1       4435-817         4435-816         CONDUIT           15.0    1.2668    0.3000
  4435-818.1       4435-818         4435-819         CONDUIT           17.0    0.0018    0.3000
  4435-819.1       4435-819         4435-820         CONDUIT           49.0    0.3469    0.3000
  4435-823.1       4435-823         4435-824         CONDUIT           63.0   -0.3175    0.0150
  4535-817.1       4535-817         4535-818         CONDUIT           35.0    0.5143    0.3000
  4535-818.1       4535-818         4535-819         CONDUIT           84.0    0.1310    0.3000
  4535-819.1       4535-819         4435-815         CONDUIT           24.0    1.3751    0.3000
  4535-820.1       4535-820         4535-821         CONDUIT           14.0    0.0714    0.0150
  4535-821.1       4535-821         4535-822         CONDUIT           20.0    0.1500    0.0150
  4535-822.1       4535-822         4435-823         CONDUIT          124.0    0.9355    0.0150
  4535-823.1       4535-823         4535-822         CONDUIT           17.0    0.2353    0.0150
  F4435-816a.1     F4435-816a       4435-818         CONDUIT           58.0   -0.0517    0.3000
  4435-816.1       4435-816         F4435-816a       CONDUIT            4.0    4.2538    0.3000
  4535-514.1       4535-514         4535-820         CONDUIT          134.0    0.4925    0.0150
  4235-810.1       4235-810         4235-811         CONDUIT           46.0    0.6304    0.0150
  4235-811.1       4235-811         4335-835         CONDUIT           97.0    0.0309    0.0150
  4335-835.1       4335-835         4335-504         CONDUIT           87.0    0.4598    0.0150
  4335-504.1       4335-504         4335-505         CONDUIT           19.0    0.8948    0.0150
  4335-506.1       4335-506         4335-505         CONDUIT           34.0    1.3236    0.0150
  4335-507.1       4335-507         4335-506         CONDUIT            9.0   -1.2223    0.0150
  4335-508.1       4335-508         4335-507         CONDUIT           31.0    0.2258    0.0150
  4435-820.1       4435-820         4435-821         CONDUIT           54.0    0.1667    0.3000
  4435-822.1       4435-822         4435-829         CONDUIT           68.0    0.0004    0.0150
  4335-824.1       4335-824         MH05640601       CONDUIT            5.0  -13.5219    0.0150
  05640601.2       MH05640601       POND3            CONDUIT            5.0    0.0061    0.0150
  05640604.1       MH05640604       MH05640504       CONDUIT           25.0    0.0012    0.0030
  4435-821.1       4435-821         4435-822         CONDUIT           40.0    0.3000    0.3000
  4435-824.1       4435-824         4435-829         CONDUIT           99.0    0.0505    0.0150
  4435-827.1       4435-827         4435-826         CONDUIT           55.0    0.0545    0.0015
  4435-826.1       4435-826         4435-825         CONDUIT           48.0    0.9375    0.0015
  4435-825.1       4435-825         4435-824         CONDUIT           68.0    0.3676    0.0015
  05647801.1       MH05647801       4435-831         CONDUIT           57.0    0.0526    0.3000
  4435-832.1       4435-832         4335-13          CONDUIT          127.0    0.2126    0.0150
  4335-505.1       4335-505         MH04649701       CONDUIT           32.0    0.8125    0.0150
  04649701.1       MH04649701       MH04649601       CONDUIT           38.0    0.7895    0.0150
  04649601.1       MH04649601       MH04649602       CONDUIT           45.0    0.7778    0.0150
  04649602.1       MH04649602       MH05640605       CONDUIT           49.0    0.7959    0.0150
  05640605.1       MH05640605       MH05640601       CONDUIT           39.0    0.7949    0.0150
  4335-802.2       4335-802         4335-01          CONDUIT           37.0   -3.2991    0.0150
  PUMP1@POND3-MH05640604 POND3            MH05640604       TYPE3 PUMP  
  PUMP2@POND3-MH05640604 POND3            MH05640604       TYPE3 PUMP  
  PUMP3@POND3-MH05640604 POND3            MH05640604       TYPE3 PUMP  
  PUMP4@POND3-MH05640604 POND3            MH05640604       TYPE3 PUMP  
  PUMP5@F4335-825a-4335-823 F4335-825a       4335-823         TYPE3 PUMP  
  
  
  *********************
  Cross Section Summary
  *********************
                                        Full     Full     Hyd.     Max.   No. of     Full
  Conduit          Shape               Depth     Area     Rad.    Width  Barrels     Flow
  ---------------------------------------------------------------------------------------
  4435-510.1       CIRCULAR             1.00     0.79     0.25     1.00        1     3.33
  4435-505.1       CIRCULAR             1.00     0.79     0.25     1.00        1     2.36
  4435-504.1       CIRCULAR             1.00     0.79     0.25     1.00        1     1.63
  4435-503.1       CIRCULAR             1.00     0.79     0.25     1.00        1     0.75
  4435-501.1       CIRCULAR             1.00     0.79     0.25     1.00        1     3.35
  4335-02.1        RECT_CLOSED          2.09     9.07     0.71     4.34        1    20.69
  4335-03.1        RECT_CLOSED          2.09     9.84     0.72     4.71        1    16.10
  4335-04.1        RECT_CLOSED          2.08     9.80     0.72     4.71        1    25.12
  4335-05.1        RECT_CLOSED          2.14    10.06     0.74     4.70        1    56.55
  4335-06.1        RECT_CLOSED          2.16    10.15     0.74     4.70        1    22.20
  4335-07.1        RECT_CLOSED          2.12    10.13     0.73     4.78        1    36.58
  4335-10.1        RECT_CLOSED          2.00     4.56     0.53     2.28        1     0.32
  4335-11.1        RECT_CLOSED          1.98     6.24     0.61     3.15        1    33.37
  4335-13.1        RECT_CLOSED          1.23     2.25     0.37     1.83        1     6.76
  4335-01.1        RECT_CLOSED          2.07     8.67     0.69     4.19        1    19.43
  4434-31.1        CIRCULAR             1.20     1.13     0.30     1.20        1     1.00
  4434-32.1        CIRCULAR             1.20     1.13     0.30     1.20        1     3.90
  4434-33.1        CIRCULAR             1.20     1.13     0.30     1.20        1     2.45
  4435-03.1        CIRCULAR             1.50     1.77     0.38     1.50        1     3.59
  4435-04.1        RECT_CLOSED          1.87     5.67     0.58     3.03        1    36.20
  4536-01.1        CIRCULAR             1.20     1.13     0.30     1.20        1     3.15
  4536-02.1        CIRCULAR             1.20     1.13     0.30     1.20        1     1.93
  4536-03.1        CIRCULAR             1.50     1.77     0.38     1.50        1     4.70
  4334-809.1       RECT_CLOSED          1.30     3.25     0.43     2.50        1    10.75
  4335-09.1        CIRCULAR             1.35     1.43     0.34     1.35        1     4.88
  4335-12.1        RECT_CLOSED          2.00     5.00     0.56     2.50        1    10.62
  4335-801.1       RECT_CLOSED          1.70     9.35     0.65     5.50        1     2.28
  4335-802.1       RECT_CLOSED          1.70    10.71     0.67     6.30        1    61.45
  4335-803.1       RECT_CLOSED          1.70    10.71     0.67     6.30        1    32.70
  4335-804.1       RECT_CLOSED          1.70    10.88     0.67     6.40        1    30.82
  4335-805.1       RECT_CLOSED          1.65    10.48     0.65     6.35        1    77.21
  4335-806.1       RECT_CLOSED          1.65     8.58     0.63     5.20        1    26.12
  4335-808.1       RECT_CLOSED          1.65     8.58     0.63     5.20        1    56.71
  4335-809.1       RECT_CLOSED          2.00     6.80     0.63     3.40        1    34.17
  4335-811.1       RECT_CLOSED          2.10     6.30     0.62     3.00        1    14.90
  4335-812.1       RECT_CLOSED          1.50     3.60     0.46     2.40        1    27.60
  4335-813.1       RECT_CLOSED          1.50     3.90     0.48     2.60        1    33.16
  4335-814.1       RECT_CLOSED          1.50     4.05     0.48     2.70        1     4.36
  4335-815.1       RECT_CLOSED          1.50     4.05     0.48     2.70        1    12.98
  4335-816.1       RECT_CLOSED          2.00     6.00     0.60     3.00        1    29.76
  4335-817.1       RECT_CLOSED          2.00     6.20     0.61     3.10        1    23.66
  4335-818.1       RECT_CLOSED          2.00     6.20     0.61     3.10        1    14.83
  4335-819.1       RECT_CLOSED          2.00     6.20     0.61     3.10        1    18.87
  4335-820.1       RECT_CLOSED          2.10     9.45     0.72     4.50        1    33.29
  4335-823.1       RECT_CLOSED          2.60    11.44     0.82     4.40        1    72.62
  4335-826.1       RECT_CLOSED          2.00     5.00     0.56     2.50        1    24.09
  4335-827.1       CIRCULAR             1.35     1.43     0.34     1.35        1     7.36
  4335-828.1       CIRCULAR             1.35     1.43     0.34     1.35        1     5.31
  4335-829.1       CIRCULAR             1.35     1.43     0.34     1.35        1     2.60
  4335-830.1       CIRCULAR             1.35     1.43     0.34     1.35        1     7.28
  4335-831.1       CIRCULAR             1.35     1.43     0.34     1.35        1    10.14
  4336-801.1       RECT_CLOSED          1.10     1.76     0.33     1.60        1     2.73
  4435-801.1       CIRCULAR             1.50     1.77     0.38     1.50        1     6.74
  4435-802.1       CIRCULAR             1.50     1.77     0.38     1.50        1     4.76
  4435-803.1       CIRCULAR             1.50     1.77     0.38     1.50        1     0.80
  4435-804.1       CIRCULAR             1.50     1.77     0.38     1.50        1     6.25
  4435-805.1       CIRCULAR             1.50     1.77     0.38     1.50        1     2.17
  4435-806.1       CIRCULAR             1.50     1.77     0.38     1.50        1    10.69
  4435-809.1       RECT_CLOSED          1.70     6.46     0.59     3.80        1    70.23
  4435-811.1       RECT_CLOSED          1.40     4.20     0.48     3.00        1     2.33
  4435-812.1       RECT_CLOSED          1.50     4.50     0.50     3.00        1    34.46
  4435-813.1       RECT_CLOSED          1.50     4.50     0.50     3.00        1     9.72
  4435-814.1       RECT_CLOSED          1.50     4.50     0.50     3.00        1    13.37
  4435-829.1       CIRCULAR             1.70     2.27     0.42     1.70        1     1.98
  4435-831.1       RECT_CLOSED          1.70     7.48     0.61     4.40        1     1.33
  4435-833.1       RECT_CLOSED          1.10     1.76     0.33     1.60        1     2.91
  4536-04.1        CIRCULAR             1.50     1.77     0.38     1.50        1     3.93
  4335-08.1        RECT_CLOSED          2.12    10.13     0.73     4.78        1    42.00
  4435-830.1       RECT_CLOSED          1.70     6.46     0.59     3.80        1     0.38
  4435-05.1        RECT_CLOSED          1.70     6.46     0.59     3.80        1    70.23
  F4435-05a.1      RECT_CLOSED          1.70     6.46     0.59     3.80        1    89.08
  4435-807.1       CIRCULAR             1.50     1.77     0.38     1.50        1     9.02
  4435-808a.1      RECT_CLOSED          1.70     6.46     0.59     3.80        1    68.70
  4435-808.1       CIRCULAR             1.00     0.79     0.25     1.00        1     2.94
  4435-506.1       CIRCULAR             1.00     0.79     0.25     1.00        1     3.01
  4335-807.1       CIRCULAR             1.00     0.79     0.25     1.00        1     2.32
  4335-807a.1      RECT_CLOSED          1.65     8.58     0.63     5.20        1    26.05
  4335-821.1       RECT_CLOSED          2.10     9.45     0.72     4.50        1    29.11
  F4335-825b.1     RECT_CLOSED          2.00     5.00     0.56     2.50        1    27.95
  F4335-825a.1     RECT_CLOSED          2.00     5.00     0.56     2.50        1    27.17
  4335-825.1       RECT_CLOSED          2.10     6.30     0.62     3.00        1    30.47
  4434-34.1        CIRCULAR             1.20     1.13     0.30     1.20        1     3.09
  4335-14.1        RECT_CLOSED          1.23     2.25     0.37     1.83        1     9.56
  4435-810.1       RECT_CLOSED          1.70     6.46     0.59     3.80        1     7.44
  4435-502.1       CIRCULAR             1.00     0.79     0.25     1.00        1     5.09
  4335-09.2        RECT_CLOSED          2.00     4.56     0.53     2.28        1    58.60
  4535-F551.1      CIRCULAR             1.30     1.33     0.33     1.30        1     4.93
  4535-513.1       CIRCULAR             1.30     1.33     0.33     1.30        1     4.99
  4535-512.1       CIRCULAR             1.00     0.79     0.25     1.00        1     1.07
  4535-511.1       CIRCULAR             1.00     0.79     0.25     1.00        1     2.46
  4435-508.1       CIRCULAR             0.90     0.64     0.23     0.90        1     0.07
  4435-507.1       CIRCULAR             1.30     1.33     0.33     1.30        1     0.96
  4435-507.2       CIRCULAR             1.30     1.33     0.33     1.30        1     0.25
  4435-509.1       CIRCULAR             1.20     1.13     0.30     1.20        1     0.05
  4435-815.1       CIRCULAR             1.50     1.77     0.38     1.50        1     0.08
  4435-817.1       CIRCULAR             1.20     1.13     0.30     1.20        1     0.19
  4435-818.1       CIRCULAR             1.50     1.77     0.38     1.50        1     0.01
  4435-819.1       CIRCULAR             1.70     2.27     0.42     1.70        1     0.25
  4435-823.1       CIRCULAR             1.70     2.27     0.42     1.70        1     4.82
  4535-817.1       CIRCULAR             1.20     1.13     0.30     1.20        1     0.12
  4535-818.1       CIRCULAR             1.40     1.54     0.35     1.40        1     0.09
  4535-819.1       CIRCULAR             1.40     1.54     0.35     1.40        1     0.30
  4535-820.1       CIRCULAR             1.40     1.54     0.35     1.40        1     1.36
  4535-821.1       CIRCULAR             1.40     1.54     0.35     1.40        1     1.97
  4535-822.1       CIRCULAR             1.70     2.27     0.42     1.70        1     8.27
  4535-823.1       CIRCULAR             1.30     1.33     0.33     1.30        1     2.03
  F4435-816a.1     CIRCULAR             1.50     1.77     0.38     1.50        1     0.07
  4435-816.1       CIRCULAR             1.20     1.13     0.30     1.20        1     0.35
  4535-514.1       CIRCULAR             1.30     1.33     0.33     1.30        1     2.94
  4235-810.1       CIRCULAR             1.20     1.13     0.30     1.20        1     2.68
  4235-811.1       CIRCULAR             1.20     1.13     0.30     1.20        1     0.59
  4335-835.1       CIRCULAR             1.20     1.13     0.30     1.20        1     2.29
  4335-504.1       CIRCULAR             1.20     1.13     0.30     1.20        1     3.20
  4335-506.1       CIRCULAR             1.00     0.79     0.25     1.00        1     2.39
  4335-507.1       CIRCULAR             1.00     0.79     0.25     1.00        1     2.30
  4335-508.1       CIRCULAR             1.00     0.79     0.25     1.00        1     0.99
  4435-820.1       CIRCULAR             1.70     2.27     0.42     1.70        1     0.17
  4435-822.1       CIRCULAR             1.70     2.27     0.42     1.70        1     0.18
  4335-824.1       RECT_CLOSED          2.60    11.44     0.82     4.40        1   245.17
  05640601.2       RECT_CLOSED          2.60    11.44     0.82     4.40        1     5.21
  05640604.1       CIRCULAR             1.52     1.81     0.38     1.52        1     1.11
  4435-821.1       CIRCULAR             1.70     2.27     0.42     1.70        1     0.23
  4435-824.1       CIRCULAR             1.80     2.54     0.45     1.80        1     2.24
  4435-827.1       CIRCULAR             1.40     1.54     0.35     1.40        1    11.91
  4435-826.1       CIRCULAR             1.50     1.77     0.38     1.50        1    59.33
  4435-825.1       CIRCULAR             1.70     2.27     0.42     1.70        1    51.87
  05647801.1       RECT_CLOSED          1.70     6.46     0.59     3.80        1     0.35
  4435-832.1       RECT_CLOSED          1.10     1.76     0.33     1.60        1     2.56
  4335-505.1       CIRCULAR             1.20     1.13     0.30     1.20        1     3.05
  04649701.1       CIRCULAR             1.20     1.13     0.30     1.20        1     3.00
  04649601.1       CIRCULAR             1.20     1.13     0.30     1.20        1     2.98
  04649602.1       CIRCULAR             1.20     1.13     0.30     1.20        1     3.02
  05640605.1       CIRCULAR             1.20     1.13     0.30     1.20        1     3.01
  4335-802.2       RECT_CLOSED          2.07     8.67     0.69     4.19        1    82.24
  
  
  ****************
  Analysis Options
  ****************
  Flow Units ............... CMS
  Process Models:
    Rainfall/Runoff ........ YES
    RDII ................... NO
    Snowmelt ............... NO
    Groundwater ............ NO
    Flow Routing ........... YES
    Ponding Allowed ........ NO
    Water Quality .......... NO
  Infiltration Method ...... HORTON
  Flow Routing Method ...... DYNWAVE
  Surcharge Method ......... EXTRAN
  Starting Date ............ 08/31/2005 06:00:00
  Ending Date .............. 09/01/2005 16:01:00
  Antecedent Dry Days ...... 0.0
  Report Time Step ......... 01:00:00
  Wet Time Step ............ 00:01:00
  Dry Time Step ............ 00:01:00
  Routing Time Step ........ 10.00 sec
  Variable Time Step ....... YES
  Maximum Trials ........... 8
  Number of Threads ........ 1
  Head Tolerance ........... 0.001500 m
  
  
  **************************        Volume         Depth
  Runoff Quantity Continuity     hectare-m            mm
  **************************     ---------       -------
  Total Precipitation ......        34.183       216.250
  Evaporation Loss .........         0.000         0.000
  Infiltration Loss ........         0.001         0.009
  Surface Runoff ...........        37.733       238.710
  Final Storage ............         0.390         2.467
  Continuity Error (%) .....       -11.531
  
  
  **************************        Volume        Volume
  Flow Routing Continuity        hectare-m      10^6 ltr
  **************************     ---------     ---------
  Dry Weather Inflow .......         0.000         0.000
  Wet Weather Inflow .......        37.733       377.330
  Groundwater Inflow .......         0.000         0.000
  RDII Inflow ..............         0.000         0.000
  External Inflow ..........         0.049         0.485
  External Outflow .........         1.435        14.354
  Flooding Loss ............        35.487       354.879
  Evaporation Loss .........         0.000         0.000
  Exfiltration Loss ........         0.000         0.000
  Initial Stored Volume ....         0.001         0.014
  Final Stored Volume ......         1.351        13.513
  Continuity Error (%) .....        -1.301
  
  
  *************************
  Highest Continuity Errors
  *************************
  Node MH05640601 (-8.81%)
  Node POND3 (-4.73%)
  Node 4335-824 (2.95%)
  Node 4335-813 (1.37%)
  Node 4335-820 (1.35%)
  
  
  ***************************
  Time-Step Critical Elements
  ***************************
  Link 4435-808.1 (66.03%)
  Link 4335-831.1 (27.87%)
  Link 4335-09.2 (4.26%)
  Link 4335-09.1 (1.25%)
  
  
  ********************************
  Highest Flow Instability Indexes
  ********************************
  Link 05640601.2 (57)
  Link 05647801.1 (38)
  Link 4335-824.1 (33)
  Link 4435-808.1 (30)
  Link 4435-831.1 (18)
  
  
  *********************************
  Most Frequent Nonconverging Nodes
  *********************************
  Node MH05640504 (9.24%)
  Node 4435-823 (3.97%)
  Node MH04649602 (2.13%)
  Node MH04649601 (2.04%)
  Node MH05640605 (1.74%)
  
  
  *************************
  Routing Time Step Summary
  *************************
  Minimum Time Step           :     0.50 sec
  Average Time Step           :     0.71 sec
  Maximum Time Step           :    10.00 sec
  % of Time in Steady State   :     0.00
  Average Iterations per Step :     2.90
  % of Steps Not Converging   :     9.24
  Time Step Frequencies       :
     10.000 -  5.493 sec      :     0.00 %
      5.493 -  3.017 sec      :     0.08 %
      3.017 -  1.657 sec      :     1.70 %
      1.657 -  0.910 sec      :    13.27 %
      0.910 -  0.500 sec      :    84.95 %
  
  
  ***************************
  Subcatchment Runoff Summary
  ***************************
  
  ------------------------------------------------------------------------------------------------------------------------------
                            Total      Total      Total      Total     Imperv       Perv      Total       Total     Peak  Runoff
                           Precip      Runon       Evap      Infil     Runoff     Runoff     Runoff      Runoff   Runoff   Coeff
  Subcatchment                 mm         mm         mm         mm         mm         mm         mm    10^6 ltr      CMS
  ------------------------------------------------------------------------------------------------------------------------------
  1                        216.25       0.00       0.00       0.00     192.46      21.39     213.86        5.97     0.29   0.989
  2                        216.25       0.00       0.00       0.00     166.07      21.55     187.62        0.51     0.02   0.868
  3                        216.25       0.00       0.00       0.00     287.42      21.30     308.71        0.99     0.05   1.428
  4                        216.25       0.00       0.00       0.00     153.96      21.45     175.42        2.98     0.14   0.811
  5                        216.25       0.00       0.00       0.00     247.88      21.61     269.49        1.48     0.07   1.246
  6                        216.25       0.00       0.00       0.00     206.14      21.46     227.59        1.00     0.05   1.052
  7                        216.25       0.00       0.00       0.00     205.49      21.27     226.75        0.57     0.03   1.049
  8                        216.25       0.00       0.00       0.00     215.86      21.40     237.26        0.66     0.03   1.097
  9                        216.25       0.00       0.00       0.01     264.52      43.22     307.74        1.29     0.06   1.423
  10                       216.25       0.00       0.00       0.00     219.61      21.58     241.18        2.03     0.10   1.115
  13                       216.25       0.00       0.00       0.01     167.70      86.15     253.84       11.58     0.55   1.174
  14                       216.25       0.00       0.00       0.00     147.09      21.54     168.63        0.79     0.04   0.780
  15                       216.25       0.00       0.00       0.01     197.75     105.67     303.42       60.08     2.86   1.403
  16                       216.25       0.00       0.00       0.01     236.56      43.24     279.80        1.76     0.08   1.294
  17                       216.25       0.00       0.00       0.02      77.42     148.30     225.72        7.20     0.35   1.044
  18                       216.25       0.00       0.00       0.01     115.61     107.11     222.72        3.01     0.14   1.030
  19                       216.25       0.00       0.00       0.01     101.16     107.55     208.71        2.90     0.14   0.965
  22                       216.25       0.00       0.00       0.01      81.24     106.01     187.25        4.23     0.20   0.866
  23                       216.25       0.00       0.00       0.01     103.44     106.17     209.62        3.37     0.16   0.969
  24                       216.25       0.00       0.00       0.00     154.34      21.33     175.67        8.61     0.41   0.812
  25                       216.25       0.00       0.00       0.00     189.41      21.24     210.65        2.55     0.12   0.974
  26                       216.25       0.00       0.00       0.00     152.19      21.57     173.76        0.45     0.02   0.804
  27                       216.25       0.00       0.00       0.01     164.17      43.12     207.29        0.52     0.02   0.959
  28                       216.25       0.00       0.00       0.00     176.31      21.13     197.44        0.75     0.04   0.913
  29                       216.25       0.00       0.00       0.00     157.01      21.25     178.26        0.78     0.04   0.824
  30                       216.25       0.00       0.00       0.00     166.99      21.35     188.33        4.24     0.20   0.871
  31                       216.25       0.00       0.00       0.00     195.49      21.45     216.94        1.39     0.07   1.003
  32                       216.25       0.00       0.00       0.00     220.04      21.21     241.25        2.29     0.11   1.116
  33                       216.25       0.00       0.00       0.00     149.27      21.42     170.69        1.86     0.09   0.789
  34                       216.25       0.00       0.00       0.01     208.10      64.36     272.46        2.92     0.14   1.260
  35                       216.25       0.00       0.00       0.00     198.98      21.40     220.38        1.10     0.05   1.019
  36                       216.25       0.00       0.00       0.00     221.58      21.40     242.99        1.14     0.05   1.124
  38                       216.25       0.00       0.00       0.00     167.65      21.60     189.24        3.35     0.16   0.875
  39                       216.25       0.00       0.00       0.00     221.38      21.47     242.86        0.97     0.05   1.123
  40                       216.25       0.00       0.00       0.01     305.55      43.19     348.74        0.31     0.01   1.613
  41                       216.25       0.00       0.00       0.00     182.80      21.16     203.95        0.57     0.03   0.943
  42                       216.25       0.00       0.00       0.00     158.46      21.55     180.01        0.29     0.01   0.832
  43                       216.25       0.00       0.00       0.00     168.98      21.47     190.45        0.21     0.01   0.881
  44                       216.25       0.00       0.00       0.00     165.89      21.17     187.07        2.02     0.10   0.865
  45                       216.25       0.00       0.00       0.00     255.81      21.25     277.06        0.64     0.03   1.281
  46                       216.25       0.00       0.00       0.00     178.77      21.27     200.04        0.74     0.04   0.925
  47                       216.25       0.00       0.00       0.00     167.81      21.21     189.02        2.95     0.14   0.874
  49                       216.25       0.00       0.00       0.00     285.02      21.14     306.16       17.73     0.84   1.416
  50                       216.25       0.00       0.00       0.00     319.37      21.44     340.80       13.67     0.65   1.576
  51                       216.25       0.00       0.00       0.00     211.13      21.46     232.59        3.00     0.14   1.076
  52                       216.25       0.00       0.00       0.01     206.30      42.84     249.15        5.26     0.25   1.152
  53                       216.25       0.00       0.00       0.00     151.64      21.35     172.99        2.85     0.14   0.800
  54                       216.25       0.00       0.00       0.00     211.64      21.45     233.09        4.59     0.22   1.078
  55                       216.25       0.00       0.00       0.00     262.98      21.14     284.12        3.47     0.17   1.314
  56                       216.25       0.00       0.00       0.00     158.30      21.35     179.65        1.92     0.09   0.831
  57                       216.25       0.00       0.00       0.00     248.88      21.57     270.45        0.87     0.04   1.251
  58                       216.25       0.00       0.00       0.00     143.51      21.47     164.98        0.40     0.02   0.763
  59                       216.25       0.00       0.00       0.02      90.60     151.10     241.71        0.41     0.02   1.118
  60                       216.25       0.00       0.00       0.02     129.44     150.35     279.78        1.20     0.06   1.294
  61                       216.25       0.00       0.00       0.01     250.06      42.24     292.30       25.17     1.20   1.352
  62                       216.25       0.00       0.00       0.00     220.89      21.16     242.05        0.51     0.02   1.119
  63                       216.25       0.00       0.00       0.00     174.72      21.29     196.00        3.65     0.18   0.906
  64                       216.25       0.00       0.00       0.00     147.04      21.16     168.20        0.59     0.03   0.778
  65                       216.25       0.00       0.00       0.00     196.47      21.25     217.72        0.26     0.01   1.007
  66                       216.25       0.00       0.00       0.00     163.84      21.41     185.24        0.30     0.01   0.857
  67                       216.25       0.00       0.00       0.00     209.81      21.22     231.03        0.30     0.01   1.068
  68                       216.25       0.00       0.00       0.00     340.89      21.49     362.38        5.25     0.25   1.676
  69                       216.25       0.00       0.00       0.02      55.44     148.88     204.32       29.67     1.33   0.945
  70                       216.25       0.00       0.00       0.02     137.14     148.54     285.68        9.48     0.45   1.321
  71                       216.25       0.00       0.00       0.02      98.19     149.63     247.81       11.92     0.57   1.146
  107                      216.25       0.00       0.00       0.00     164.39      21.46     185.85        2.43     0.12   0.859
  108                      216.25       0.00       0.00       0.00     154.64      21.35     175.99        1.04     0.05   0.814
  109                      216.25       0.00       0.00       0.00     182.15      21.43     203.59        4.09     0.20   0.941
  110                      216.25       0.00       0.00       0.00     189.65      21.44     211.09       13.45     0.65   0.976
  111                      216.25       0.00       0.00       0.00     155.82      21.61     177.43        0.35     0.02   0.820
  112                      216.25       0.00       0.00       0.00     145.59      21.58     167.17        0.55     0.03   0.773
  113                      216.25       0.00       0.00       0.00     175.24      21.20     196.43        3.03     0.15   0.908
  114                      216.25       0.00       0.00       0.00     179.62      21.44     201.06        6.82     0.32   0.930
  115                      216.25       0.00       0.00       0.00     213.82      21.52     235.34        1.04     0.05   1.088
  116                      216.25       0.00       0.00       0.00     150.30      21.22     171.53        0.43     0.02   0.793
  117                      216.25       0.00       0.00       0.00     150.63      21.62     172.25        1.00     0.05   0.797
  118                      216.25       0.00       0.00       0.00     150.32      21.29     171.61        0.38     0.02   0.794
  119                      216.25       0.00       0.00       0.00     162.95      21.36     184.31        4.04     0.19   0.852
  120                      216.25       0.00       0.00       0.00     160.84      21.21     182.05        0.44     0.02   0.842
  121                      216.25       0.00       0.00       0.00     166.65      21.20     187.84        1.60     0.08   0.869
  122                      216.25       0.00       0.00       0.02     134.58     150.08     284.66        2.59     0.12   1.316
  123                      216.25       0.00       0.00       0.02      49.59     148.13     197.73        1.11     0.05   0.914
  124                      216.25       0.00       0.00       0.02     118.78     149.86     268.64        6.69     0.32   1.242
  125                      216.25       0.00       0.00       0.00     170.58      21.44     192.01        0.50     0.02   0.888
  126                      216.25       0.00       0.00       0.00     239.80      21.52     261.32        0.47     0.02   1.208
  127                      216.25       0.00       0.00       0.02     137.12     149.84     286.97        9.81     0.46   1.327
  130                      216.25       0.00       0.00       0.00     183.87      21.26     205.12        1.87     0.09   0.949
  131                      216.25       0.00       0.00       0.01     139.61      42.51     182.12        1.04     0.05   0.842
  132                      216.25       0.00       0.00       0.01     279.28      42.94     322.22        1.03     0.05   1.490
  133                      216.25       0.00       0.00       0.00     172.73      21.58     194.31        0.23     0.01   0.899
  134                      216.25       0.00       0.00       0.00     194.79      21.50     216.28        3.87     0.18   1.000
  135                      216.25       0.00       0.00       0.00     147.80      21.28     169.08        0.27     0.01   0.782
  136                      216.25       0.00       0.00       0.00     166.54      21.17     187.71        0.21     0.01   0.868
  187                      216.25       0.00       0.00       0.00     158.46      21.58     180.04       11.47     0.53   0.833
  
  
  ******************
  Node Depth Summary
  ******************
  
  ---------------------------------------------------------------------------------
                                 Average  Maximum  Maximum  Time of Max    Reported
                                   Depth    Depth      HGL   Occurrence   Max Depth
  Node                 Type       Meters   Meters   Meters  days hr:min      Meters
  ---------------------------------------------------------------------------------
  4235-810             JUNCTION     0.05     0.15    14.03     0  16:00        0.15
  4235-811             JUNCTION     0.13     0.34    13.93     0  15:59        0.34
  4334-809             JUNCTION     0.45     0.58    13.95     0  16:00        0.58
  4335-01              JUNCTION     0.91     1.04    13.58     0  15:54        1.01
  4335-02              JUNCTION     1.05     1.25    13.65     0  15:55        1.20
  4335-03              JUNCTION     1.16     1.31    13.60     0  15:41        1.28
  4335-04              JUNCTION     1.20     1.43    13.67     0  19:38        1.36
  4335-05              JUNCTION     1.12     1.50    13.82     0  20:16        1.45
  4335-06              JUNCTION     1.42     1.71    13.73     0  19:33        1.63
  4335-07              JUNCTION     1.33     1.51    13.62     0  19:31        1.44
  4335-08              JUNCTION     1.56     1.73    13.61     0  13:14        1.69
  4335-09              JUNCTION     0.95     1.26    13.76     0  14:37        1.09
  4335-10              JUNCTION     1.53     1.77    13.67     0  15:52        1.67
  4335-11              JUNCTION     1.52     1.68    13.58     1  09:02        1.63
  4335-12              JUNCTION     2.30     2.67    13.77     1  03:00        2.43
  4335-13              JUNCTION     0.06     0.21    13.68     0  15:55        0.20
  4335-14              JUNCTION     0.45     0.75    13.75     0  15:45        0.68
  4335-504             JUNCTION     0.37     0.55    13.72     0  15:48        0.51
  4335-505             JUNCTION     0.54     0.76    13.76     1  09:19        0.67
  4335-506             JUNCTION     0.02     0.07    14.02     0  16:00        0.07
  4335-507             JUNCTION     0.05     0.12    14.07     0  16:00        0.12
  4335-508             JUNCTION     0.03     0.08    14.22     0  16:00        0.08
  4335-801             JUNCTION     1.64     2.22    14.16     0  15:54        2.20
  4335-802             JUNCTION     2.10     2.26    13.58     0  15:54        2.23
  4335-803             JUNCTION     1.03     1.14    13.56     0  15:54        1.13
  4335-804             JUNCTION     1.31     1.43    13.56     0  15:54        1.42
  4335-805             JUNCTION     1.62     1.81    13.63     0  19:20        1.73
  4335-806             JUNCTION     1.83     1.97    13.57     0  15:46        1.96
  4335-807             JUNCTION     0.85     1.02    13.62     0  14:30        0.93
  4335-807a            JUNCTION     0.95     1.05    13.55     0  15:04        1.02
  4335-808             JUNCTION     1.18     1.30    13.56     1  09:22        1.26
  4335-809             JUNCTION     2.14     2.31    13.58     1  08:56        2.26
  4335-811             JUNCTION     2.33     2.50    13.57     1  08:56        2.45
  4335-812             JUNCTION     0.02     0.09    13.88     0  16:00        0.09
  4335-813             JUNCTION     1.67     2.16    13.95     1  08:53        1.86
  4335-814             JUNCTION     0.65     0.93    13.77     1  08:56        0.81
  4335-815             JUNCTION     0.67     0.84    13.66     1  03:00        0.73
  4335-816             JUNCTION     0.98     1.24    13.73     1  09:21        1.18
  4335-817             JUNCTION     1.32     1.62    13.76     0  15:59        1.47
  4335-818             JUNCTION     1.66     1.95    13.74     1  08:56        1.81
  4335-819             JUNCTION     1.73     1.98    13.69     1  08:58        1.89
  4335-820             JUNCTION     1.90     2.43    13.97     1  08:57        2.02
  4335-821             JUNCTION     2.06     2.28    13.65     1  02:58        2.24
  4335-823             JUNCTION     2.05     2.65    14.07     1  03:00        2.48
  4335-824             JUNCTION     2.74     3.69    14.41     1  02:45        3.68
  4335-825             JUNCTION     2.44     2.57    13.53     1  02:58        2.54
  4335-826             JUNCTION     2.44     2.55    13.51     0  12:19        2.55
  4335-827             JUNCTION     1.13     2.57    14.89     0  14:45        1.57
  4335-828             JUNCTION     0.83     1.06    13.69     0  15:52        1.00
  4335-829             JUNCTION     1.02     1.47    13.96     0  15:53        1.44
  4335-830             JUNCTION     0.51     0.94    13.92     0  15:53        0.88
  4335-831             JUNCTION     0.19     0.64    14.00     0  15:53        0.59
  4335-835             JUNCTION     0.10     0.25    13.81     0  15:59        0.25
  4336-801             JUNCTION     0.00     0.08    14.14     0  16:00        0.08
  4434-31              JUNCTION     0.10     0.26    14.45     0  16:00        0.26
  4434-32              JUNCTION     0.06     0.17    14.25     0  16:00        0.17
  4434-33              JUNCTION     0.14     0.35    14.27     0  16:00        0.35
  4434-34              JUNCTION     0.09     0.26    14.08     0  16:00        0.26
  4435-03              JUNCTION     0.10     0.27    15.43     0  12:32        0.27
  4435-04              JUNCTION     0.13     0.51    15.42     0  12:31        0.47
  4435-05              JUNCTION     1.38     2.38    15.42     0  12:31        2.34
  4435-501             JUNCTION     0.05     0.14    17.46     0  16:00        0.14
  4435-502             JUNCTION     0.05     0.15    16.28     0  16:00        0.15
  4435-503             JUNCTION     0.24     0.82    15.47     0  12:31        0.73
  4435-504             JUNCTION     0.25     0.86    15.45     0  12:31        0.79
  4435-505             JUNCTION     0.28     1.51    15.98     0  12:30        0.91
  4435-506             JUNCTION     0.41     2.09    16.16     0  12:20        1.30
  4435-507             JUNCTION     0.19     0.71    15.56     0  15:29        0.69
  4435-508             JUNCTION     0.33     1.02    15.87     0  15:38        1.02
  4435-509             JUNCTION     0.34     1.66    16.55     0  15:31        1.65
  4435-510             JUNCTION     0.06     0.16    16.91     0  16:00        0.16
  4435-801             JUNCTION     0.26     0.86    17.97     0  16:00        0.86
  4435-802             JUNCTION     0.60     1.43    17.97     0  16:00        1.43
  4435-803             JUNCTION     0.91     1.67    17.89     0  16:00        1.67
  4435-804             JUNCTION     0.24     0.70    17.45     0  16:00        0.70
  4435-805             JUNCTION     0.30     0.88    17.05     0  16:00        0.88
  4435-806             JUNCTION     0.18     0.51    16.49     0  16:00        0.51
  4435-807             JUNCTION     0.67     2.38    16.14     0  12:27        1.66
  4435-808             JUNCTION     0.59     2.26    16.10     0  12:18        1.54
  4435-808a            JUNCTION     1.44     2.45    15.43     0  12:30        2.39
  4435-809             JUNCTION     1.47     2.42    15.37     0  12:15        2.42
  4435-810             JUNCTION     1.51     2.48    15.39     0  12:30        2.46
  4435-811             JUNCTION     0.81     1.78    15.40     0  12:31        1.75
  4435-812             JUNCTION     0.23     0.86    15.41     0  12:31        0.82
  4435-813             JUNCTION     0.42     1.06    15.43     0  12:31        1.01
  4435-814             JUNCTION     0.23     0.85    15.45     0  12:31        0.78
  4435-815             JUNCTION     0.85     2.56    16.77     0  15:10        2.56
  4435-816             JUNCTION     0.42     2.02    16.69     0  15:42        2.01
  4435-817             JUNCTION     0.34     1.80    16.66     0  15:53        1.79
  4435-818             JUNCTION     0.73     2.35    16.62     0  15:42        2.33
  4435-819             JUNCTION     0.68     2.20    16.47     0  15:31        2.17
  4435-820             JUNCTION     0.73     2.08    16.18     0  15:31        2.05
  4435-822             JUNCTION     0.63     1.69    15.58     0  15:31        1.67
  4435-823             JUNCTION     0.86     2.83    16.46     0  12:30        1.91
  4435-821             JUNCTION     0.69     1.82    15.83     0  15:31        1.78
  4435-824             JUNCTION     0.66     1.78    15.61     0  15:24        1.68
  4435-825             JUNCTION     0.42     2.36    16.44     0  13:04        1.78
  4435-826             JUNCTION     0.25     1.14    15.67     0  15:23        1.07
  4435-829             JUNCTION     0.66     1.71    15.49     0  15:05        1.67
  4435-830             JUNCTION     1.57     2.54    15.39     0  12:31        2.52
  4435-827             JUNCTION     0.25     1.04    15.60     0  15:26        0.94
  4435-831             JUNCTION     1.51     2.54    14.81     0  15:54        2.53
  4435-832             JUNCTION     0.07     0.26    14.00     0  16:00        0.26
  4435-833             JUNCTION     0.06     0.23    14.14     0  16:00        0.23
  4535-511             JUNCTION     0.05     0.15    17.65     0  16:00        0.15
  4535-512             JUNCTION     0.09     0.25    16.73     0  16:00        0.25
  4535-513             JUNCTION     0.08     0.24    16.52     0  16:00        0.24
  4535-514             JUNCTION     0.18     0.53    16.02     0  16:00        0.53
  4535-817             JUNCTION     0.37     2.11    16.94     0  15:33        2.10
  4535-818             JUNCTION     0.49     2.29    16.94     0  15:41        2.27
  4535-819             JUNCTION     0.55     2.36    16.90     0  15:14        2.36
  4535-820             JUNCTION     0.28     0.79    15.62     0  15:28        0.77
  4535-821             JUNCTION     0.27     0.78    15.60     0  15:28        0.76
  4535-822             JUNCTION     0.24     0.76    15.55     0  12:32        0.74
  4535-823             JUNCTION     0.20     0.73    15.56     0  12:33        0.70
  4535-F551            JUNCTION     0.08     0.24    16.05     0  16:00        0.24
  4536-01              JUNCTION     0.12     0.35    18.84     0  16:00        0.35
  4536-02              JUNCTION     0.36     0.86    18.38     0  16:00        0.86
  4536-03              JUNCTION     0.17     0.60    18.20     0  16:00        0.60
  4536-04              JUNCTION     0.40     1.08    18.21     0  16:00        1.08
  F4335-825a           JUNCTION     2.52     2.62    13.50     0  02:56        2.62
  F4335-825b           JUNCTION     2.21     2.78    14.00     1  03:00        2.45
  F4435-05a            JUNCTION     1.42     2.46    15.46     0  12:20        2.38
  F4435-816a           JUNCTION     0.80     2.45    16.69     0  15:56        2.44
  MH04649601           JUNCTION     1.07     2.51    14.95     0  16:04        1.59
  MH04649602           JUNCTION     1.40     2.81    14.90     1  02:39        2.01
  MH04649701           JUNCTION     0.78     1.13    13.87     0  15:36        1.08
  MH05640601           JUNCTION     2.74     5.28    16.00     1  02:39        3.74
  MH05640604           JUNCTION     1.01     2.15    16.85     0  00:00        1.07
  MH05640605           JUNCTION     1.78     4.16    15.86     1  02:39        2.19
  MH05647801           JUNCTION     1.41     2.27    15.08     0  15:55        2.26
  POND3                JUNCTION     3.20     6.60    16.85     1  02:45        4.87
  MH05640504           OUTFALL      1.01     1.01    15.71     0  00:00        1.01
  
  
  *******************
  Node Inflow Summary
  *******************
  
  -------------------------------------------------------------------------------------------------
                                  Maximum  Maximum                  Lateral       Total        Flow
                                  Lateral    Total  Time of Max      Inflow      Inflow     Balance
                                   Inflow   Inflow   Occurrence      Volume      Volume       Error
  Node                 Type           CMS      CMS  days hr:min    10^6 ltr    10^6 ltr     Percent
  -------------------------------------------------------------------------------------------------
  4235-810             JUNCTION     0.089    0.089     0  16:00        1.87        1.87       0.001
  4235-811             JUNCTION     0.050    0.139     0  16:00        1.04        2.91       0.012
  4334-809             JUNCTION     0.161    0.467     0  16:00        3.35         9.7       0.390
  4335-01              JUNCTION     0.000    1.061     0  20:40           0          40       0.548
  4335-02              JUNCTION     0.066    4.238     0  15:54        1.39        75.3       0.358
  4335-03              JUNCTION     0.204    2.264     0  15:55        4.23        57.5       0.516
  4335-04              JUNCTION     0.000    4.746     0  19:34           0        67.2       0.316
  4335-05              JUNCTION     0.000    8.496     0  20:18           0        90.8       0.295
  4335-06              JUNCTION     0.138    7.046     0  20:15         2.9          84       0.298
  4335-07              JUNCTION     0.144    3.419     0  19:29        3.01        63.4       0.536
  4335-08              JUNCTION     0.025    2.936     0  19:29       0.518          64       0.596
  4335-09              JUNCTION     0.349    2.397     0  15:35         7.2        44.8      -0.031
  4335-10              JUNCTION     0.000    2.987     0  15:34           0        42.3       0.547
  4335-11              JUNCTION     0.000    2.440     0  15:52           0        40.1       0.716
  4335-12              JUNCTION     0.098    2.370     0  15:57        2.03        42.4       0.503
  4335-13              JUNCTION     0.163    0.577     0  15:55        3.37          12       0.084
  4335-14              JUNCTION     0.000    2.337     0  15:55           0        34.1       0.213
  4335-504             JUNCTION     0.011    0.609     0  15:47       0.233        6.26      -0.133
  4335-505             JUNCTION     0.184    0.901     0  15:48        3.87        11.7       0.130
  4335-506             JUNCTION     0.000    0.023     0  16:00           0       0.477       0.002
  4335-507             JUNCTION     0.010    0.023     0  16:00       0.206       0.477       0.029
  4335-508             JUNCTION     0.013    0.013     0  16:00       0.271       0.271       0.003
  4335-801             JUNCTION     0.089    2.228     0  15:52        1.86         105       0.492
  4335-802             JUNCTION     0.000    2.228     0  15:52           0         106       1.060
  4335-803             JUNCTION     0.109    1.974     0  15:42        2.29        67.6       0.829
  4335-804             JUNCTION     0.205    2.229     0  15:34        4.24        71.6       1.105
  4335-805             JUNCTION     0.038    2.290     0  15:34       0.784        72.1       1.118
  4335-806             JUNCTION     0.036    6.029     0  15:46        0.75         179       0.372
  4335-807             JUNCTION     0.000    0.258     0  16:33           0        1.08       1.048
  4335-807a            JUNCTION     0.022    5.948     0  15:44       0.452         176       0.093
  4335-808             JUNCTION     0.123    5.810     0  15:47        2.55         177       0.208
  4335-809             JUNCTION     0.000    5.834     0  15:47           0         177       0.197
  4335-811             JUNCTION     0.551    6.383     0  15:47        11.6         188       0.116
  4335-812             JUNCTION     0.028    0.494     0  16:00       0.571        10.2       0.001
  4335-813             JUNCTION     0.014    1.263     1  08:53       0.288        10.6       1.384
  4335-814             JUNCTION     0.010    1.699     1  08:57       0.209        12.3       0.360
  4335-815             JUNCTION     0.015    1.723     1  08:53       0.314        14.5       0.528
  4335-816             JUNCTION     0.046    3.631     1  08:58       0.971        25.3       0.521
  4335-817             JUNCTION     0.062    4.490     0  16:00        1.29        29.9       0.639
  4335-818             JUNCTION     0.032    3.010     1  08:56       0.664        21.1       1.044
  4335-819             JUNCTION     0.027    2.893     1  08:57       0.567        20.7       1.001
  4335-820             JUNCTION     0.048    3.670     1  08:57           1        21.8       1.365
[...]
  4335-823.1              1.00   0.00  0.00  0.00  1.00  0.00  0.00  0.00  0.03  0.00
  4335-826.1              1.00   0.00  0.00  0.00  1.00  0.00  0.00  0.00  0.01  0.00
  4335-827.1              1.00   0.00  0.00  0.00  0.96  0.02  0.02  0.00  0.00  0.00
  4335-828.1              1.00   0.00  0.00  0.00  0.94  0.02  0.00  0.04  0.01  0.00
  4335-829.1              1.00   0.00  0.00  0.00  0.94  0.00  0.06  0.00  0.00  0.00
  4335-830.1              1.00   0.00  0.00  0.00  1.00  0.00  0.00  0.00  0.08  0.00
  4335-831.1              1.00   0.00  0.00  0.00  0.66  0.32  0.00  0.02  0.54  0.00
  4336-801.1              1.00   0.00  0.67  0.00  0.32  0.00  0.00  0.00  0.52  0.00
  4435-801.1              1.00   0.01  0.00  0.00  0.98  0.01  0.00  0.00  0.90  0.00
  4435-802.1              1.00   0.00  0.00  0.00  0.99  0.00  0.00  0.00  0.01  0.00
  4435-803.1              1.00   0.01  0.00  0.01  0.00  0.00  0.00  0.98  0.00  0.00
  4435-804.1              1.00   0.00  0.00  0.00  0.02  0.97  0.00  0.00  0.89  0.00
  4435-805.1              1.00   0.00  0.00  0.00  0.00  0.00  0.00  1.00  0.00  0.00
  4435-806.1              1.00   0.00  0.00  0.00  0.70  0.30  0.00  0.00  0.99  0.00
  4435-809.1              1.00   0.00  0.00  0.00  1.00  0.00  0.00  0.00  0.01  0.00
  4435-811.1              1.00   0.00  0.00  0.00  0.98  0.00  0.00  0.02  0.07  0.00
  4435-812.1              1.00   0.00  0.00  0.00  0.99  0.01  0.00  0.00  0.69  0.00
  4435-813.1              1.00   0.00  0.00  0.00  1.00  0.00  0.00  0.00  0.02  0.00
  4435-814.1              1.00   0.00  0.00  0.00  1.00  0.00  0.00  0.00  0.69  0.00
  4435-829.1              1.00   0.00  0.00  0.01  0.94  0.01  0.03  0.01  0.00  0.00
  4435-831.1              1.00   0.00  0.00  0.00  1.00  0.00  0.00  0.00  0.02  0.00
  4435-833.1              1.00   0.00  0.00  0.00  1.00  0.00  0.00  0.00  0.94  0.00
  4536-04.1               1.00   0.00  0.01  0.00  0.99  0.00  0.00  0.00  0.00  0.00
  4335-08.1               1.00   0.00  0.00  0.00  1.00  0.00  0.00  0.00  0.02  0.00
  4435-830.1              1.00   0.00  0.00  0.00  1.00  0.00  0.00  0.00  0.00  0.00
  4435-05.1               1.00   0.00  0.00  0.00  0.98  0.02  0.00  0.00  0.00  0.00
  F4435-05a.1             1.00   0.00  0.00  0.00  0.98  0.02  0.00  0.00  0.00  0.00
  4435-807.1              1.00   0.00  0.00  0.00  0.97  0.00  0.00  0.03  0.17  0.00
  4435-808a.1             1.00   0.00  0.00  0.00  0.98  0.02  0.00  0.00  0.00  0.00
  4435-808.1              1.00   0.00  0.00  0.00  0.98  0.00  0.00  0.02  0.17  0.00
  4435-506.1              1.00   0.00  0.00  0.00  0.84  0.15  0.00  0.00  0.46  0.00
  4335-807.1              1.00   0.03  0.02  0.00  0.95  0.00  0.00  0.00  0.00  0.00
  4335-807a.1             1.00   0.00  0.03  0.00  0.96  0.01  0.00  0.00  0.05  0.00
  4335-821.1              1.00   0.00  0.00  0.00  1.00  0.00  0.00  0.00  0.01  0.00
  F4335-825b.1            1.00   0.00  0.00  0.00  1.00  0.00  0.00  0.00  0.03  0.00
  F4335-825a.1            1.00   0.00  0.00  0.00  1.00  0.00  0.00  0.00  0.02  0.00
  4335-825.1              1.00   0.00  0.00  0.00  1.00  0.00  0.00  0.00  0.00  0.00
  4434-34.1               1.00   0.00  0.00  0.00  1.00  0.00  0.00  0.00  0.99  0.00
  4335-14.1               1.00   0.00  0.00  0.00  0.95  0.00  0.00  0.04  0.05  0.00
  4435-810.1              1.00   0.00  0.00  0.00  1.00  0.00  0.00  0.00  0.00  0.00
  4435-502.1              1.00   0.00  0.00  0.00  0.98  0.02  0.00  0.00  0.99  0.00
  4335-09.2               1.00   0.00  0.00  0.00  1.00  0.00  0.00  0.00  0.05  0.00
  4535-F551.1             1.00   0.00  0.00  0.00  1.00  0.00  0.00  0.00  1.00  0.00
  4535-513.1              1.00   0.00  0.00  0.00  0.03  0.97  0.00  0.00  0.80  0.00
  4535-512.1              1.00   0.00  0.00  0.00  0.99  0.00  0.00  0.01  0.00  0.00
  4535-511.1              1.00   0.00  0.00  0.00  0.99  0.01  0.00  0.00  0.96  0.00
  4435-508.1              1.00   0.00  0.01  0.00  0.97  0.00  0.01  0.00  0.00  0.00
  4435-507.1              1.00   0.00  0.00  0.00  1.00  0.00  0.00  0.00  0.07  0.00
  4435-507.2              1.00   0.00  0.01  0.00  0.53  0.00  0.46  0.00  0.00  0.00
  4435-509.1              1.00   0.00  0.01  0.00  0.99  0.00  0.00  0.00  0.01  0.00
  4435-815.1              1.00   0.00  0.00  0.00  1.00  0.00  0.00  0.00  0.01  0.00
  4435-817.1              1.00   0.00  0.00  0.00  1.00  0.00  0.00  0.00  0.56  0.00
  4435-818.1              1.00   0.00  0.00  0.00  1.00  0.00  0.00  0.00  0.00  0.00
  4435-819.1              1.00   0.00  0.00  0.00  1.00  0.00  0.00  0.00  0.21  0.00
  4435-823.1              1.00   0.00  0.00  0.00  1.00  0.00  0.00  0.00  0.01  0.00
  4535-817.1              1.00   0.00  0.00  0.00  1.00  0.00  0.00  0.00  0.60  0.00
  4535-818.1              1.00   0.00  0.00  0.00  1.00  0.00  0.00  0.00  0.38  0.00
  4535-819.1              1.00   0.00  0.00  0.00  1.00  0.00  0.00  0.00  0.28  0.00
  4535-820.1              1.00   0.00  0.00  0.00  1.00  0.00  0.00  0.00  0.00  0.00
  4535-821.1              1.00   0.00  0.00  0.00  0.83  0.17  0.00  0.00  0.00  0.00
  4535-822.1              1.00   0.00  0.00  0.00  1.00  0.00  0.00  0.00  0.72  0.00
  4535-823.1              1.00   0.00  0.00  0.00  1.00  0.00  0.00  0.00  0.14  0.00
  F4435-816a.1            1.00   0.00  0.00  0.00  1.00  0.00  0.00  0.00  0.00  0.00
  4435-816.1              1.00   0.00  0.00  0.00  0.99  0.00  0.00  0.01  0.51  0.00
  4535-514.1              1.00   0.00  0.00  0.00  1.00  0.00  0.00  0.00  0.99  0.00
  4235-810.1              1.00   0.00  0.00  0.00  1.00  0.00  0.00  0.00  0.99  0.00
  4235-811.1              1.00   0.00  0.00  0.00  1.00  0.00  0.00  0.00  0.11  0.00
  4335-835.1              1.00   0.01  0.00  0.00  0.92  0.00  0.00  0.07  0.90  0.00
  4335-504.1              1.00   0.00  0.00  0.00  1.00  0.00  0.00  0.00  0.07  0.00
  4335-506.1              1.00   0.01  0.00  0.00  0.99  0.00  0.00  0.00  0.99  0.00
  4335-507.1              1.00   0.00  0.01  0.00  0.00  0.00  0.99  0.00  0.00  0.00
  4335-508.1              1.00   0.00  0.00  0.00  0.98  0.00  0.00  0.01  0.96  0.00
  4435-820.1              1.00   0.00  0.00  0.00  1.00  0.00  0.00  0.00  0.00  0.00
  4435-822.1              1.00   0.00  0.01  0.00  0.92  0.00  0.00  0.07  0.41  0.00
  4335-824.1              1.00   0.00  0.01  0.00  0.99  0.00  0.00  0.00  0.00  0.00
  05640601.2              1.00   0.01  0.00  0.00  0.99  0.00  0.00  0.00  0.01  0.00
  05640604.1              1.00   0.00  0.00  0.00  1.00  0.00  0.00  0.00  0.00  0.00
  4435-821.1              1.00   0.00  0.00  0.00  1.00  0.00  0.00  0.00  0.00  0.00
  4435-824.1              1.00   0.00  0.00  0.00  0.96  0.04  0.00  0.00  0.02  0.00
  4435-827.1              1.00   0.00  0.00  0.00  0.30  0.70  0.00  0.00  0.00  0.00
  4435-826.1              1.00   0.00  0.00  0.00  0.37  0.63  0.00  0.00  0.69  0.00
  4435-825.1              1.00   0.00  0.00  0.00  0.99  0.01  0.00  0.00  0.49  0.00
  05647801.1              1.00   0.01  0.00  0.00  0.99  0.00  0.00  0.01  0.48  0.00
  4435-832.1              1.00   0.00  0.01  0.00  0.99  0.00  0.00  0.00  0.33  0.00
  4335-505.1              1.00   0.00  0.00  0.00  0.94  0.06  0.00  0.00  0.02  0.00
  04649701.1              1.00   0.00  0.00  0.00  0.95  0.05  0.00  0.00  0.01  0.00
  04649601.1              1.00   0.00  0.00  0.00  0.95  0.05  0.00  0.00  0.01  0.00
  04649602.1              1.00   0.00  0.00  0.00  0.96  0.04  0.00  0.00  0.01  0.00
  05640605.1              1.00   0.01  0.00  0.00  0.98  0.00  0.00  0.01  0.02  0.00
  4335-802.2              1.00   0.00  0.04  0.00  0.95  0.00  0.00  0.00  0.00  0.00
  
  
  *************************
  Conduit Surcharge Summary
  *************************
  
  ----------------------------------------------------------------------------
                                                           Hours        Hours 
                         --------- Hours Full --------   Above Full   Capacity
  Conduit                Both Ends  Upstream  Dnstream   Normal Flow   Limited
  ----------------------------------------------------------------------------
  4435-510.1                  0.01      0.01      0.01     34.02         0.01
  4435-505.1                  0.01      0.01      9.41     34.02         0.01
  4435-504.1                  0.01      0.01      0.01     34.02         0.01
  4435-503.1                  0.01      0.01      0.01     34.02         0.01
  4435-501.1                  0.01      0.01      0.01     34.02         0.01
  4335-02.1                   0.01      0.01      0.01     34.02         0.01
  4335-03.1                   0.01      0.01      0.01     34.02         0.01
  4335-04.1                   0.01      0.01      0.01     34.02         0.01
  4335-05.1                   0.01      0.01      0.01     34.02         0.01
  4335-06.1                   0.01      0.01      0.01     34.02         0.01
  4335-07.1                   0.01      0.01      0.01     34.02         0.01
  4335-10.1                   0.01      0.01      0.01     34.02         0.01
  4335-11.1                   0.01      0.01     31.73     34.02         0.01
  4335-13.1                   0.01      0.01      0.01     34.02         0.01
  4335-01.1                   0.01      0.01      0.01     34.02         0.01
  4434-31.1                   0.01      0.01      0.01     34.02         0.01
  4434-32.1                   0.01      0.01      0.01     34.02         0.01
  4434-33.1                   0.01      0.01      0.01     34.02         0.01
  4435-03.1                   0.01      0.01      0.01     34.02         0.01
  4435-04.1                   0.01      0.01      9.61     34.02         0.01
  4536-01.1                   0.01      0.01      0.01     34.02         0.01
  4536-02.1                   0.01      0.01      0.01     34.02         0.01
  4536-03.1                   0.01      0.01      0.01     34.02         0.01
  4334-809.1                  0.01      0.01      0.01     34.02         0.01
  4335-09.1                   0.01      0.01      1.27     34.02         0.01
  4335-12.1                  31.75     31.75     31.90     34.02         0.02
  4335-801.1                 10.55     10.55     31.85     34.02         0.01
  4335-802.1                  0.01      0.01     31.85     34.02         0.01
  4335-803.1                  0.01      0.01      0.01     34.02         0.01
  4335-804.1                  0.01      0.01      4.16     34.02         0.01
  4335-805.1                 30.38     31.30     30.38     34.02         0.01
  4335-806.1                  0.01     31.40      0.01     34.02         0.01
  4335-808.1                  0.01      0.01     31.93     34.02         0.01
  4335-809.1                 31.51     31.51     31.80     34.02         0.01
  4335-811.1                 31.68     31.68     31.81     34.02         0.01
  4335-812.1                  0.01      0.01     31.51     34.02         0.01
  4335-813.1                  0.01      0.01     31.51     34.02         0.01
  4335-814.1                  0.01      0.01      0.01     34.02         0.01
  4335-815.1                  0.01      0.01      0.01     34.02         0.01
  4335-816.1                  0.01      0.01      0.01     34.02         0.01
  4335-817.1                  0.01      0.01      0.01     34.02         0.01
  4335-818.1                  0.01      0.01      0.01     34.02         0.01
  4335-819.1                  0.01      0.01      4.22     34.02         0.01
  4335-820.1                  0.02      0.02     30.81     34.02         0.01
  4335-823.1                  0.01      0.01     31.33     34.02         0.01
  4335-826.1                 31.90     31.91     31.95     34.02         0.01
  4335-827.1                  1.36     31.78      1.36     34.02         0.01
  4335-828.1                  0.01      0.01      1.34     34.02         0.01
  4335-829.1                  0.01      0.01      0.73     34.02         0.01
  4335-830.1                  0.01      0.01      0.73     34.02         0.01
  4335-831.1                  0.01      0.01      0.01     34.02         0.01
  4336-801.1                  0.01      0.01      0.01     34.02         0.01
  4435-801.1                  0.01      0.01      0.01     34.02         0.01
  4435-802.1                  0.01      0.01      1.00     34.02         0.01
  4435-803.1                  0.01      0.70      0.01     34.02         0.01
  4435-804.1                  0.01      0.01      0.01     34.02         0.01
  4435-805.1                  0.01      0.01      0.01     34.02         0.01
  4435-806.1                  0.01      0.01      9.11     34.02         0.01
  4435-809.1                 10.14     10.15     10.23     34.02         0.02
  4435-811.1                  9.49      9.49     11.25     34.02         0.07
  4435-812.1                  0.01      0.01      9.33     34.02         0.01
  4435-813.1                  0.01      0.01      0.01     34.02         0.01
  4435-814.1                  0.01      0.01      0.01     34.02         0.01
  4435-829.1                  0.01      9.84      0.01     34.02         0.01
  4435-831.1                  9.94      9.94     10.55     34.02         9.62
  4435-833.1                  0.01      0.01      0.01     34.02         0.01
  4536-04.1                   0.01      0.01      0.01     34.02         0.01
  4335-08.1                   0.01      0.01      0.01     34.02         0.01
  4435-830.1                  9.69     10.33      9.69     34.02         9.69
  4435-05.1                   9.99      9.99     10.07     34.02         0.03
  F4435-05a.1                10.06     10.07     10.10     34.02         0.05
  4435-807.1                  9.11      9.11     10.41     34.02         0.01
  4435-808a.1                10.10     10.10     10.15     34.02         0.02
  4435-808.1                  9.80      9.80     22.26     34.02         0.01
  4435-506.1                  9.41      9.41      9.80     34.02         0.01
  4335-807.1                  0.01      0.01     17.01     34.02         0.01
  4335-807a.1                 0.01      0.01      0.01     34.02         0.01
  4335-821.1                 30.81     30.81     31.47     34.02         0.01
  F4335-825b.1               31.28     31.28     31.64     34.02         0.02
  F4335-825a.1               31.64     31.64     31.94     34.02         0.01
  4335-825.1                 31.81     31.87     31.81     34.02         0.01
  4434-34.1                   0.01      0.01      0.01     34.02         0.01
  4335-14.1                   0.01      0.01      0.01     34.02         0.01
  4435-810.1                 10.23     10.23     10.33     34.02         0.01
  4435-502.1                  0.01      0.01     32.13     34.02         0.01
  4335-09.2                   0.01      0.01      0.01     34.02         0.01
  4535-F551.1                 0.01      0.01      0.01     34.02         0.01
  4535-513.1                  0.01      0.01      0.01     34.02         0.01
  4535-512.1                  0.01      0.01      0.01     34.02         0.01
  4535-511.1                  0.01      0.01      0.01     34.02         0.01
  4435-508.1                  2.08      3.21      2.08     34.02         2.07
  4435-507.1                  0.01      0.01      0.01     34.02         0.01
  4435-507.2                  0.01      0.01      0.01     34.02         0.01
  4435-509.1                  2.28      2.28      2.46     34.02         0.01
  4435-815.1                  4.90      4.90      5.61     34.02         0.01
  4435-817.1                  2.46      2.46      3.19     34.02         0.01
  4435-818.1                  3.11      3.63      3.11     34.02         3.11
  4435-819.1                  2.30      2.31      2.31     34.02         2.27
  4435-823.1                  0.78      0.78      6.16     34.02         0.01
  4535-817.1                  2.91      2.91      4.20     34.02         0.01
  4535-818.1                  2.81      2.81      3.28     34.02         0.01
  4535-819.1                  3.28      3.28      7.09     34.02         0.01
  4535-820.1                  0.01      0.01      0.01     34.02         0.01
  4535-821.1                  0.01      0.01      0.01     34.02         0.01
  4535-822.1                  0.01      0.01      6.16     34.02         0.01
  4535-823.1                  0.01      0.01      0.01     34.02         0.01
  F4435-816a.1                3.63      3.63      4.90     34.02         0.01
  4435-816.1                  3.19      3.19      8.74     34.02         0.01
  4535-514.1                  0.01      0.01      0.01     34.02         0.01
  4235-810.1                  0.01      0.01      0.01     34.02         0.01
  4235-811.1                  0.01      0.01      0.01     34.02         0.01
  4335-835.1                  0.01      0.01      0.01     34.02         0.01
  4335-504.1                  0.01      0.01      0.01     34.02         0.01
  4335-506.1                  0.01      0.01      0.01     34.02         0.01
  4335-507.1                  0.01      0.01      0.01     34.02         0.01
  4335-508.1                  0.01      0.01      0.01     34.02         0.01
  4435-820.1                  0.87      2.31      0.87     34.02         0.87
  4435-822.1                  0.01      0.01      0.01     34.02         0.01
  4335-824.1                 31.17     31.18     31.33     34.02         0.02
  05640601.2                 31.32     31.32     31.94     34.02         5.32
  05640604.1                  0.01      0.01      0.01     34.02         0.01
  4435-821.1                  0.01      0.87      0.01     34.02         0.01
  4435-824.1                  0.01      0.01      0.01     34.02         0.01
  4435-827.1                  0.01      0.01      0.01     34.02         0.01
  4435-826.1                  0.01      0.01      2.16     34.02         0.01
  4435-825.1                  0.01      0.31      0.78     34.02         0.01
  05647801.1                  9.68      9.69      9.69     34.02         9.68
  4435-832.1                  0.01      0.01      0.01     34.02         0.01
  4335-505.1                  0.01      0.01      0.01     34.02         0.01
  04649701.1                  0.01      0.01      1.29     34.02         0.01
  04649601.1                  1.28      1.28     31.50     34.02         0.01
  04649602.1                 31.50     31.50     31.94     34.02         0.01
  05640605.1                 31.94     31.94     32.37     34.02         0.02
  4335-802.2                  0.01      0.01     31.31     34.02         0.01
  
  
  ***************
  Pumping Summary
  ***************
  
  ---------------------------------------------------------------------------------------------------------
                                                  Min       Avg       Max     Total     Power    % Time Off
                        Percent   Number of      Flow      Flow      Flow    Volume     Usage    Pump Curve
  Pump                 Utilized   Start-Ups       CMS       CMS       CMS  10^6 ltr     Kw-hr    Low   High
  ---------------------------------------------------------------------------------------------------------
  PUMP1@POND3-MH05640604    94.81           4      0.00      0.03     16.05     3.557     21.46    0.0  100.0
  PUMP2@POND3-MH05640604    94.55           7      0.00      0.03     16.05     3.547     21.38    0.0  100.0
  PUMP3@POND3-MH05640604    94.32           7      0.00      0.03     16.05     3.539     21.31    0.0  100.0
  PUMP4@POND3-MH05640604    93.71          12      0.00      0.03     16.05     3.516     21.13    0.0   99.8
  PUMP5@F4335-825a-4335-823    93.69          74      0.00     12.00     12.00  1376.569    262.67    0.0  100.0
  

  Analysis begun on:  Sat Jan  6 05:15:33 2024
  Analysis ended on:  Sat Jan  6 05:16:07 2024
  Total elapsed time: 00:00:34