
  EPA STORM WATER MANAGEMENT MODEL - VERSION 5.2 (Build 5.2.2)
  ------------------------------------------------------------

  ﻿[TITLE] 
  Zhonggang	drainage	system							 
  5yr24hr.	design	typhoon	rainfall						 
  WARNING 04: minimum elevation drop used for Conduit 4335-10.1
  WARNING 04: minimum elevation drop used for Conduit 4435-818.1
  WARNING 04: minimum elevation drop used for Conduit 4435-822.1
  WARNING 04: minimum elevation drop used for Conduit 05640601.2
  WARNING 04: minimum elevation drop used for Conduit 05640604.1
  
  *************
  Element Count
  *************
  Number of rain gages ...... 1
  Number of subcatchments ... 94
  Number of nodes ........... 133
  Number of links ........... 139
  Number of pollutants ...... 0
  Number of land uses ....... 0
  
  
  ****************
  Raingage Summary
  ****************
                                                      Data       Recording
  Name                 Data Source                    Type       Interval 
  ------------------------------------------------------------------------
  GAGE1                Typhoon_HAITANG                INTENSITY   60 min.
  
  
  ********************
  Subcatchment Summary
  ********************
  Name                       Area     Width   %Imperv    %Slope Rain Gage            Outlet              
  -----------------------------------------------------------------------------------------------------------
  1                          2.79    218.00     90.00    2.6000 GAGE1                4335-826            
  2                          0.27     68.00     90.00   31.8000 GAGE1                4335-824            
  3                          0.32     73.00     90.00    0.1000 GAGE1                4335-823            
  4                          1.70    170.00     90.00    0.1000 GAGE1                4335-829            
  5                          0.55     97.00     90.00    0.8000 GAGE1                4335-821            
  6                          0.44     87.00     90.00    0.8000 GAGE1                4335-820            
  7                          0.25     66.00     90.00    0.4000 GAGE1                4335-819            
  8                          0.28     69.00     90.00    0.7000 GAGE1                4335-818            
  9                          0.42     85.00     80.00    0.5000 GAGE1                4335-817            
  10                         0.84    119.00     90.00    1.7000 GAGE1                4335-12             
  13                         4.56    279.00     60.00    0.2000 GAGE1                4335-811            
  14                         0.47     89.00     90.00    0.6000 GAGE1                4335-830            
  15                        19.80    580.00     50.00    0.4000 GAGE1                4335-831            
  16                         0.63    104.00     80.00    0.7000 GAGE1                4335-828            
  17                         3.19    233.00     30.00   23.7000 GAGE1                4335-09             
  18                         1.35    152.00     50.00    0.4000 GAGE1                4335-07             
  19                         1.39    154.00     50.00    0.1000 GAGE1                4335-06             
  22                         2.26    196.00     50.00    0.2000 GAGE1                4335-03             
  23                         1.61    165.00     50.00    0.1000 GAGE1                4335-13             
  24                         4.90    289.00     90.00    0.3000 GAGE1                4435-833            
  25                         1.21    144.00     90.00    0.5000 GAGE1                4335-808            
  26                         0.26     66.00     90.00    1.1000 GAGE1                4335-807a           
  27                         0.25     65.00     80.00    1.0000 GAGE1                4335-08             
  28                         0.38     80.00     90.00    2.0000 GAGE1                4335-806            
  29                         0.44     86.00     90.00    0.7000 GAGE1                4335-805            
  30                         2.25    196.00     90.00    0.3000 GAGE1                4335-804            
  31                         0.64    105.00     90.00    0.6000 GAGE1                4335-02             
  32                         0.95    127.00     90.00    1.3000 GAGE1                4335-803            
  33                         1.09    136.00     90.00    1.2000 GAGE1                4335-801            
  34                         1.07    135.00     70.00    2.1000 GAGE1                4435-501            
  35                         0.50     92.00     90.00    2.9000 GAGE1                4435-510            
  36                         0.47     90.00     90.00    4.9000 GAGE1                4435-502            
  38                         1.77    173.00     90.00    0.7000 GAGE1                4334-809            
  39                         0.40     82.00     90.00    1.2000 GAGE1                4335-816            
  40                         0.09     38.00     80.00    3.3000 GAGE1                4335-815            
  41                         0.28     68.00     90.00    2.2000 GAGE1                4335-812            
  42                         0.16     52.00     90.00    4.4000 GAGE1                4335-813            
  43                         0.11     44.00     90.00    2.7000 GAGE1                4335-814            
  44                         1.08    135.00     90.00    0.8000 GAGE1                4434-33             
  45                         0.23     63.00     90.00    1.8000 GAGE1                4434-34             
  46                         0.37     79.00     90.00    0.8000 GAGE1                4434-32             
  47                         1.56    163.00     90.00    1.2000 GAGE1                4434-31             
  49                         5.79    314.00     90.00    0.1000 GAGE1                4435-831            
  50                         4.01    261.00     90.00    0.1000 GAGE1                4435-810            
  51                         1.29    148.00     90.00    0.4000 GAGE1                4435-830            
  52                         2.11    189.00     80.00    1.2000 GAGE1                4435-03             
  53                         1.65    168.00     90.00    0.9000 GAGE1                4435-04             
  54                         1.97    183.00     90.00    0.4000 GAGE1                4435-829            
  55                         1.22    144.00     90.00    0.4000 GAGE1                4435-05             
  56                         1.07    135.00     90.00    5.8000 GAGE1                4435-808            
  57                         0.32     74.00     90.00    2.1000 GAGE1                4435-807            
  58                         0.24     64.00     90.00    3.0000 GAGE1                4435-806            
  59                         0.17     54.00     30.00    1.4000 GAGE1                4435-811            
  60                         0.43     85.00     30.00    3.5000 GAGE1                4435-812            
  61                         8.61    383.00     80.00    0.2000 GAGE1                4435-814            
  62                         0.21     59.00     90.00    0.6000 GAGE1                4435-504            
  63                         1.86    178.00     90.00    0.2000 GAGE1                4435-503            
  64                         0.35     77.00     90.00    0.3000 GAGE1                4435-505            
  65                         0.12     46.00     90.00    2.4000 GAGE1                4435-805            
  66                         0.16     52.00     90.00    2.6000 GAGE1                4435-804            
  67                         0.13     47.00     90.00    0.7000 GAGE1                4435-803            
  68                         1.45    157.00     90.00    0.1000 GAGE1                4435-801            
  69                        14.52    497.00     30.00    0.1000 GAGE1                4536-04             
  70                         3.32    237.00     30.00    0.3000 GAGE1                4536-02             
  71                         4.81    286.00     30.00    0.5000 GAGE1                4536-01             
  107                        1.31    149.00     90.00    1.2000 GAGE1                4535-511            
  108                        0.59    100.00     90.00    0.9000 GAGE1                4535-512            
  109                        2.01    185.00     90.00    0.4000 GAGE1                4535-513            
  110                        6.37    329.00     90.00    0.5000 GAGE1                4535-514            
  111                        0.20     59.00     90.00    1.1000 GAGE1                4535-817            
  112                        0.33     75.00     90.00    0.7000 GAGE1                4535-818            
  113                        1.54    162.00     90.00    0.5000 GAGE1                4535-819            
  114                        3.39    240.00     90.00    1.2000 GAGE1                4535-821            
  115                        0.44     86.00     90.00    0.1000 GAGE1                4435-508            
  116                        0.25     65.00     90.00    0.6000 GAGE1                4435-817            
  117                        0.58     99.00     90.00    0.1000 GAGE1                4435-816            
  118                        0.22     61.00     90.00    0.2000 GAGE1                4435-815            
  119                        2.19    193.00     90.00    0.2000 GAGE1                4435-818            
  120                        0.24     64.00     90.00    0.6000 GAGE1                4435-507            
  121                        0.85    120.00     90.00    0.2000 GAGE1                4435-823            
  122                        0.91    124.00     30.00    0.1000 GAGE1                4435-824            
  123                        0.56     98.00     30.00    0.3000 GAGE1                4435-825            
  124                        2.49    206.00     30.00    0.1000 GAGE1                4435-826            
  125                        0.26     67.00     90.00    0.1000 GAGE1                4435-819            
  126                        0.18     55.00     90.00    0.2000 GAGE1                4435-820            
  127                        3.42    241.00     30.00    0.1000 GAGE1                4435-827            
  130                        0.91    124.00     90.00    0.2000 GAGE1                4235-810            
  131                        0.57     99.00     80.00    0.2000 GAGE1                4235-811            
  132                        0.32     74.00     80.00    0.1000 GAGE1                4335-835            
  133                        0.12     46.00     90.00    1.3000 GAGE1                4335-504            
  134                        1.79    174.00     90.00    0.6000 GAGE1                4335-505            
  135                        0.16     52.00     90.00    0.3000 GAGE1                4335-508            
  136                        0.11     44.00     90.00    0.2000 GAGE1                4335-507            
  187                        6.37     73.00     90.00    0.6000 GAGE1                POND3               
  
  
  ************
  Node Summary
  ************
                                           Invert      Max.    Ponded    External
  Name                 Type                 Elev.     Depth      Area    Inflow  
  -------------------------------------------------------------------------------
  4235-810             JUNCTION             13.88      1.76       0.0
  4235-811             JUNCTION             13.59      1.96       0.0
  4334-809             JUNCTION             13.37      1.61       0.0
  4335-01              JUNCTION             12.54      3.55       0.0
  4335-02              JUNCTION             12.40      3.30       0.0
  4335-03              JUNCTION             12.29      3.07       0.0
  4335-04              JUNCTION             12.24      3.22       0.0
  4335-05              JUNCTION             12.32      2.94       0.0
  4335-06              JUNCTION             12.02      2.95       0.0
  4335-07              JUNCTION             12.11      2.78       0.0
  4335-08              JUNCTION             11.88      2.82       0.0
  4335-09              JUNCTION             12.50      3.18       0.0
  4335-10              JUNCTION             11.90      2.10       0.0
  4335-11              JUNCTION             11.90      2.46       0.0
  4335-12              JUNCTION             11.10      3.03       0.0
  4335-13              JUNCTION             13.47      2.22       0.0
  4335-14              JUNCTION             13.00      2.70       0.0
  4335-504             JUNCTION             13.17      2.61       0.0
  4335-505             JUNCTION             13.00      3.03       0.0
  4335-506             JUNCTION             13.95      2.14       0.0
  4335-507             JUNCTION             13.95      2.12       0.0
  4335-508             JUNCTION             14.14      1.84       0.0
  4335-801             JUNCTION             11.94      2.99       0.0
  4335-802             JUNCTION             11.32      4.38       0.0
  4335-803             JUNCTION             12.42      3.69       0.0
  4335-804             JUNCTION             12.13      2.92       0.0
  4335-805             JUNCTION             11.82      2.94       0.0
  4335-806             JUNCTION             11.60      3.57       0.0
  4335-807             JUNCTION             12.60      2.21       0.0
  4335-807a            JUNCTION             12.50      2.31       0.0
  4335-808             JUNCTION             12.26      1.88       0.0
  4335-809             JUNCTION             11.27      2.61       0.0
  4335-811             JUNCTION             11.07      2.71       0.0
  4335-812             JUNCTION             13.79      1.56       0.0
  4335-813             JUNCTION             11.79      4.73       0.0
  4335-814             JUNCTION             12.84      4.73       0.0
  4335-815             JUNCTION             12.82      3.98       0.0
  4335-816             JUNCTION             12.49      2.54       0.0
  4335-817             JUNCTION             12.14      2.50       0.0
  4335-818             JUNCTION             11.79      2.56       0.0
  4335-819             JUNCTION             11.71      2.43       0.0
  4335-820             JUNCTION             11.54      2.43       0.0
  4335-821             JUNCTION             11.37      2.28       0.0
  4335-823             JUNCTION             11.42      2.99       0.0
  4335-824             JUNCTION             10.72      3.69       0.0
  4335-825             JUNCTION             10.96      2.74       0.0
  4335-826             JUNCTION             10.96      2.55       0.0
  4335-827             JUNCTION             12.32      3.22       0.0
  4335-828             JUNCTION             12.63      3.06       0.0
  4335-829             JUNCTION             12.49      3.17       0.0
  4335-830             JUNCTION             12.98      2.80       0.0
  4335-831             JUNCTION             13.36      2.44       0.0
  4335-835             JUNCTION             13.56      2.16       0.0
  4336-801             JUNCTION             14.06      1.56       0.0
  4434-31              JUNCTION             14.19      3.16       0.0
  4434-32              JUNCTION             14.08      2.45       0.0
  4434-33              JUNCTION             13.92      2.51       0.0
  4434-34              JUNCTION             13.82      2.12       0.0
  4435-03              JUNCTION             15.16      2.76       0.0
  4435-04              JUNCTION             14.91      2.22       0.0
  4435-05              JUNCTION             13.04      3.46       0.0
  4435-501             JUNCTION             17.32      2.15       0.0
  4435-502             JUNCTION             16.13      2.21       0.0
  4435-503             JUNCTION             14.65      1.85       0.0
  4435-504             JUNCTION             14.59      1.82       0.0
  4435-505             JUNCTION             14.47      1.79       0.0
  4435-506             JUNCTION             14.07      2.09       0.0
  4435-507             JUNCTION             14.85      2.22       0.0
  4435-508             JUNCTION             14.85      2.02       0.0
  4435-509             JUNCTION             14.89      1.92       0.0
  4435-510             JUNCTION             16.75      2.25       0.0
  4435-801             JUNCTION             17.11      4.46       0.0
  4435-802             JUNCTION             16.54      5.11       0.0
  4435-803             JUNCTION             16.22      5.53       0.0
  4435-804             JUNCTION             16.75      4.61       0.0
  4435-805             JUNCTION             16.17      3.90       0.0
  4435-806             JUNCTION             15.98      2.93       0.0
  4435-807             JUNCTION             13.76      2.94       0.0
  4435-808             JUNCTION             13.84      2.26       0.0
  4435-808a            JUNCTION             12.98      3.22       0.0
  4435-809             JUNCTION             12.95      2.42       0.0
  4435-810             JUNCTION             12.91      2.58       0.0
  4435-811             JUNCTION             13.62      2.64       0.0
  4435-812             JUNCTION             14.55      2.70       0.0
  4435-813             JUNCTION             14.37      3.17       0.0
  4435-814             JUNCTION             14.60      3.02       0.0
  4435-815             JUNCTION             14.21      2.56       0.0
  4435-816             JUNCTION             14.67      2.03       0.0
  4435-817             JUNCTION             14.86      1.93       0.0
  4435-818             JUNCTION             14.27      2.36       0.0
  4435-819             JUNCTION             14.27      2.32       0.0
  4435-820             JUNCTION             14.10      2.50       0.0
  4435-822             JUNCTION             13.89      3.03       0.0
  4435-823             JUNCTION             13.63      2.83       0.0
  4435-821             JUNCTION             14.01      2.69       0.0
  4435-824             JUNCTION             13.83      2.78       0.0
  4435-825             JUNCTION             14.08      2.36       0.0
  4435-826             JUNCTION             14.53      1.94       0.0
  4435-829             JUNCTION             13.78      2.93       0.0
  4435-830             JUNCTION             12.85      2.63       0.0
  4435-827             JUNCTION             14.56      1.93       0.0
  4435-831             JUNCTION             12.27      2.70       0.0
  4435-832             JUNCTION             13.74      1.88       0.0
  4435-833             JUNCTION             13.91      1.51       0.0
  4535-511             JUNCTION             17.50      2.02       0.0
  4535-512             JUNCTION             16.48      2.19       0.0
  4535-513             JUNCTION             16.28      1.86       0.0
  4535-514             JUNCTION             15.49      2.43       0.0
  4535-817             JUNCTION             14.83      3.03       0.0
  4535-818             JUNCTION             14.65      2.81       0.0
  4535-819             JUNCTION             14.54      2.36       0.0
  4535-820             JUNCTION             14.83      2.38       0.0
  4535-821             JUNCTION             14.82      2.43       0.0
  4535-822             JUNCTION             14.79      2.22       0.0
  4535-823             JUNCTION             14.83      2.27       0.0
  4535-F551            JUNCTION             15.81      2.19       0.0
  4536-01              JUNCTION             18.49      2.03       0.0
  4536-02              JUNCTION             17.52      3.56       0.0
  4536-03              JUNCTION             17.60      3.62       0.0
  4536-04              JUNCTION             17.13      4.37       0.0
  F4335-825a           JUNCTION             10.88      2.62       0.0
  F4335-825b           JUNCTION             11.22      2.78       0.0
  F4435-05a            JUNCTION             13.00      3.20       0.0
  F4435-816a           JUNCTION             14.24      2.46       0.0
  MH04649601           JUNCTION             12.44      4.39       0.0
  MH04649602           JUNCTION             12.09      4.85       0.0
  MH04649701           JUNCTION             12.74      3.49       0.0
  MH05640601           JUNCTION             10.72      5.28       0.0
  MH05640604           JUNCTION             14.70      2.15       0.0
  MH05640605           JUNCTION             11.70      5.50       0.0
  MH05647801           JUNCTION             12.81      2.39       0.0
  POND3                JUNCTION             10.25      6.60       0.0
  MH05640504           OUTFALL              14.70      1.52       0.0
  
  
  ************
  Link Summary
  ************
  Name             From Node        To Node          Type            Length    %Slope Roughness
  ---------------------------------------------------------------------------------------------
  4435-510.1       4435-510         4435-502         CONDUIT           23.0    2.5661    0.0150
  4435-505.1       4435-505         4435-506         CONDUIT           31.0    1.2904    0.0150
  4435-504.1       4435-504         4435-505         CONDUIT           26.0    0.6154    0.0150
  4435-503.1       4435-503         4435-504         CONDUIT           46.0    0.1304    0.0150
  4435-501.1       4435-501         4435-510         CONDUIT           22.0    2.5918    0.0150
  4335-02.1        4335-02          4335-03          CONDUIT           59.0    0.1864    0.0150
  4335-03.1        4335-03          4335-04          CONDUIT           54.0    0.0926    0.0150
  4335-04.1        4335-04          4335-05          CONDUIT           35.0   -0.2286    0.0150
  4335-05.1        4335-05          4335-06          CONDUIT           28.0    1.0715    0.0150
  4335-06.1        4335-06          4335-07          CONDUIT           56.0   -0.1607    0.0150
  4335-07.1        4335-07          4335-08          CONDUIT           52.0    0.4423    0.0150
  4335-10.1        4335-10          4335-11          CONDUIT          116.0    0.0003    0.0150
  4335-11.1        4335-11          4335-12          CONDUIT           36.0    1.2501    0.0150
  4335-13.1        4335-13          4335-14          CONDUIT           61.0    0.7705    0.0150
  4335-01.1        4335-01          4335-02          CONDUIT           76.0    0.1842    0.0150
  4434-31.1        4434-31          4434-32          CONDUIT           68.0    0.0882    0.0150
  4434-32.1        4434-32          4434-33          CONDUIT           12.0    1.3335    0.0150
  4434-33.1        4434-33          4434-34          CONDUIT           61.0    0.5246    0.0150
  4435-03.1        4435-03          4435-04          CONDUIT           64.0    0.3438    0.0150
  4435-04.1        4435-04          4435-05          CONDUIT           74.0    1.9058    0.0150
  4536-01.1        4536-01          4536-02          CONDUIT          112.0    0.8661    0.0150
  4536-02.1        4536-02          4536-03          CONDUIT           52.0   -0.3269    0.0150
  4536-03.1        4536-03          4536-04          CONDUIT           80.0    0.5875    0.0150
  4334-809.1       4334-809         4335-812         CONDUIT           55.0   -0.7637    0.0150
  4335-09.1        4335-09          4335-827         CONDUIT            9.0    1.1112    0.0150
  4335-12.1        4335-12          4335-826         CONDUIT           36.0    0.2222    0.0150
  4335-801.1       4335-801         4335-802         CONDUIT           65.0    0.9539    0.3000
  4335-802.1       4335-802         4335-803         CONDUIT           87.0   -1.2645    0.0150
  4335-803.1       4335-803         4335-804         CONDUIT           81.0    0.3580    0.0150
  4335-804.1       4335-804         4335-805         CONDUIT          101.0    0.3069    0.0150
  4335-805.1       4335-805         4335-806         CONDUIT           61.0   -2.1480    0.0150
  4335-806.1       4335-806         4335-807a        CONDUIT           18.0    0.3889    0.0150
  4335-808.1       4335-808         4335-809         CONDUIT           54.0    1.8336    0.0150
  4335-809.1       4335-809         4335-811         CONDUIT           19.0    1.0527    0.0150
  4335-811.1       4335-811         4335-825         CONDUIT           46.0    0.2391    0.0150
  4335-812.1       4335-812         4335-813         CONDUIT           54.0    3.7062    0.0150
  4335-813.1       4335-813         4335-814         CONDUIT           24.0   -4.3792    0.0150
  4335-814.1       4335-814         4335-815         CONDUIT           29.0    0.0690    0.0150
  4335-815.1       4335-815         4335-816         CONDUIT           54.0    0.6111    0.0150
  4335-816.1       4335-816         4335-817         CONDUIT           32.0    1.0938    0.0150
  4335-817.1       4335-817         4335-818         CONDUIT           55.0    0.6364    0.0150
  4335-818.1       4335-818         4335-819         CONDUIT           32.0    0.2500    0.0150
  4335-819.1       4335-819         4335-820         CONDUIT           42.0    0.4048    0.0150
  4335-820.1       4335-820         4335-821         CONDUIT           39.0    0.4359    0.0150
  4335-823.1       4335-823         4335-824         CONDUIT           59.0    1.1865    0.0150
  4335-826.1       4335-826         F4335-825a       CONDUIT            7.0    1.1429    0.0150
  4335-827.1       4335-827         4335-806         CONDUIT           36.0   -2.5286    0.0150
  4335-828.1       4335-828         4335-827         CONDUIT           22.0    1.3183    0.0150
  4335-829.1       4335-829         4335-828         CONDUIT           54.0   -0.3148    0.0150
  4335-830.1       4335-830         4335-829         CONDUIT           19.0    2.4744    0.0150
  4335-831.1       4335-831         4335-830         CONDUIT            5.0    4.8055    0.0150
  4336-801.1       4336-801         4435-833         CONDUIT           62.0    0.2419    0.0150
  4435-801.1       4435-801         4435-802         CONDUIT           71.0    1.2114    0.0150
  4435-802.1       4435-802         4435-803         CONDUIT           53.0    0.6038    0.0150
  4435-803.1       4435-803         4435-804         CONDUIT           58.0    0.0172    0.0150
  4435-804.1       4435-804         4435-805         CONDUIT           50.0    1.0401    0.0150
  4435-805.1       4435-805         4435-806         CONDUIT           48.0    0.1250    0.0150
  4435-806.1       4435-806         4435-807         CONDUIT           73.0    3.0425    0.0150
  4435-809.1       4435-809         4435-810         CONDUIT           74.0    0.0541    0.0015
  4435-811.1       4435-811         4435-810         CONDUIT           54.0    0.0185    0.0150
  4435-812.1       4435-812         4435-811         CONDUIT           28.0    3.3233    0.0150
  4435-813.1       4435-813         4435-812         CONDUIT           68.0   -0.2647    0.0150
  4435-814.1       4435-814         4435-813         CONDUIT           46.0    0.5000    0.0150
  4435-829.1       4435-829         4435-05          CONDUIT           56.0   -0.0536    0.0150
  4435-831.1       4435-831         4335-801         CONDUIT           60.0    0.5500    0.3000
  4435-833.1       4435-833         4435-832         CONDUIT           62.0    0.2742    0.0150
  4536-04.1        4536-04          4435-801         CONDUIT           73.0    0.4110    0.0150
  4335-08.1        4335-08          4335-806         CONDUIT           48.0    0.5833    0.0150
  4435-830.1       4435-830         MH05647801       CONDUIT           64.0    0.0625    0.3000
  4435-05.1        4435-05          F4435-05a        CONDUIT           74.0    0.0541    0.0015
  F4435-05a.1      F4435-05a        4435-808a        CONDUIT           23.0    0.0870    0.0015
  4435-807.1       4435-807         F4435-05a        CONDUIT           24.0    2.1672    0.0150
  4435-808a.1      4435-808a        4435-809         CONDUIT           58.0    0.0517    0.0015
  4435-808.1       4435-808         4435-808a        CONDUIT            2.0    2.0004    0.0150
  4435-506.1       4435-506         4435-808         CONDUIT           11.0    2.0914    0.0150
  4335-807.1       4335-807         4335-807a        CONDUIT            8.0    1.2501    0.0150
  4335-807a.1      4335-807a        4335-808         CONDUIT           62.0    0.3871    0.0150
  4335-821.1       4335-821         F4335-825b       CONDUIT           45.0    0.3333    0.0150
  F4335-825b.1     F4335-825b       4335-823         CONDUIT           13.0   -1.5386    0.0150
  F4335-825a.1     F4335-825a       F4335-825b       CONDUIT           11.0   -1.4547    0.0150
  4335-825.1       4335-825         F4335-825a       CONDUIT           10.0   -1.0001    0.0150
  4434-34.1        4434-34          4334-809         CONDUIT           54.0    0.8334    0.0150
  4335-14.1        4335-14          4335-02          CONDUIT           13.0    1.5386    0.0150
  4435-810.1       4435-810         4435-830         CONDUIT           99.0    0.0606    0.0150
  4435-502.1       4435-502         4335-801         CONDUIT           70.0    5.9965    0.0150
  4335-09.2        4335-09          4335-10          CONDUIT            7.0    8.6031    0.0150
  4535-F551.1      4535-F551        4535-514         CONDUIT           23.0    1.3914    0.0150
  4535-513.1       4535-513         4535-F551        CONDUIT           33.0    1.4244    0.0150
  4535-512.1       4535-512         4535-513         CONDUIT           60.0    0.2667    0.0150
  4535-511.1       4535-511         4535-512         CONDUIT           68.0    1.3972    0.0150
  4435-508.1       4435-508         4435-509         CONDUIT           43.0   -0.9070    0.3000
  4435-507.1       4435-507         4535-823         CONDUIT           38.0    0.0526    0.0150
  4435-507.2       4435-507         4435-508         CONDUIT           36.0    1.4446    0.3000
  4435-509.1       4435-509         4435-817         CONDUIT           31.0    0.0968    0.3000
  4435-815.1       4435-815         F4435-816a       CONDUIT           43.0   -0.0698    0.3000
  4435-817.1       4435-817         4435-816         CONDUIT           15.0    1.2668    0.3000
  4435-818.1       4435-818         4435-819         CONDUIT           17.0    0.0018    0.3000
  4435-819.1       4435-819         4435-820         CONDUIT           49.0    0.3469    0.3000
  4435-823.1       4435-823         4435-824         CONDUIT           63.0   -0.3175    0.0150
  4535-817.1       4535-817         4535-818         CONDUIT           35.0    0.5143    0.3000
  4535-818.1       4535-818         4535-819         CONDUIT           84.0    0.1310    0.3000
  4535-819.1       4535-819         4435-815         CONDUIT           24.0    1.3751    0.3000
  4535-820.1       4535-820         4535-821         CONDUIT           14.0    0.0714    0.0150
  4535-821.1       4535-821         4535-822         CONDUIT           20.0    0.1500    0.0150
  4535-822.1       4535-822         4435-823         CONDUIT          124.0    0.9355    0.0150
  4535-823.1       4535-823         4535-822         CONDUIT           17.0    0.2353    0.0150
  F4435-816a.1     F4435-816a       4435-818         CONDUIT           58.0   -0.0517    0.3000
  4435-816.1       4435-816         F4435-816a       CONDUIT            4.0    4.2538    0.3000
  4535-514.1       4535-514         4535-820         CONDUIT          134.0    0.4925    0.0150
  4235-810.1       4235-810         4235-811         CONDUIT           46.0    0.6304    0.0150
  4235-811.1       4235-811         4335-835         CONDUIT           97.0    0.0309    0.0150
  4335-835.1       4335-835         4335-504         CONDUIT           87.0    0.4598    0.0150
  4335-504.1       4335-504         4335-505         CONDUIT           19.0    0.8948    0.0150
  4335-506.1       4335-506         4335-505         CONDUIT           34.0    1.3236    0.0150
  4335-507.1       4335-507         4335-506         CONDUIT            9.0   -1.2223    0.0150
  4335-508.1       4335-508         4335-507         CONDUIT           31.0    0.2258    0.0150
  4435-820.1       4435-820         4435-821         CONDUIT           54.0    0.1667    0.3000
  4435-822.1       4435-822         4435-829         CONDUIT           68.0    0.0004    0.0150
  4335-824.1       4335-824         MH05640601       CONDUIT            5.0  -13.5219    0.0150
  05640601.2       MH05640601       POND3            CONDUIT            5.0    0.0061    0.0150
  05640604.1       MH05640604       MH05640504       CONDUIT           25.0    0.0012    0.0030
  4435-821.1       4435-821         4435-822         CONDUIT           40.0    0.3000    0.3000
  4435-824.1       4435-824         4435-829         CONDUIT           99.0    0.0505    0.0150
  4435-827.1       4435-827         4435-826         CONDUIT           55.0    0.0545    0.0015
  4435-826.1       4435-826         4435-825         CONDUIT           48.0    0.9375    0.0015
  4435-825.1       4435-825         4435-824         CONDUIT           68.0    0.3676    0.0015
  05647801.1       MH05647801       4435-831         CONDUIT           57.0    0.0526    0.3000
  4435-832.1       4435-832         4335-13          CONDUIT          127.0    0.2126    0.0150
  4335-505.1       4335-505         MH04649701       CONDUIT           32.0    0.8125    0.0150
  04649701.1       MH04649701       MH04649601       CONDUIT           38.0    0.7895    0.0150
  04649601.1       MH04649601       MH04649602       CONDUIT           45.0    0.7778    0.0150
  04649602.1       MH04649602       MH05640605       CONDUIT           49.0    0.7959    0.0150
  05640605.1       MH05640605       MH05640601       CONDUIT           39.0    0.7949    0.0150
  4335-802.2       4335-802         4335-01          CONDUIT           37.0   -3.2991    0.0150
  PUMP1@POND3-MH05640604 POND3            MH05640604       TYPE3 PUMP  
  PUMP2@POND3-MH05640604 POND3            MH05640604       TYPE3 PUMP  
  PUMP3@POND3-MH05640604 POND3            MH05640604       TYPE3 PUMP  
  PUMP4@POND3-MH05640604 POND3            MH05640604       TYPE3 PUMP  
  PUMP5@F4335-825a-4335-823 F4335-825a       4335-823         TYPE3 PUMP  
  
  
  *********************
  Cross Section Summary
  *********************
                                        Full     Full     Hyd.     Max.   No. of     Full
  Conduit          Shape               Depth     Area     Rad.    Width  Barrels     Flow
  ---------------------------------------------------------------------------------------
  4435-510.1       CIRCULAR             1.00     0.79     0.25     1.00        1     3.33
  4435-505.1       CIRCULAR             1.00     0.79     0.25     1.00        1     2.36
  4435-504.1       CIRCULAR             1.00     0.79     0.25     1.00        1     1.63
  4435-503.1       CIRCULAR             1.00     0.79     0.25     1.00        1     0.75
  4435-501.1       CIRCULAR             1.00     0.79     0.25     1.00        1     3.35
  4335-02.1        RECT_CLOSED          2.09     9.07     0.71     4.34        1    20.69
  4335-03.1        RECT_CLOSED          2.09     9.84     0.72     4.71        1    16.10
  4335-04.1        RECT_CLOSED          2.08     9.80     0.72     4.71        1    25.12
  4335-05.1        RECT_CLOSED          2.14    10.06     0.74     4.70        1    56.55
  4335-06.1        RECT_CLOSED          2.16    10.15     0.74     4.70        1    22.20
  4335-07.1        RECT_CLOSED          2.12    10.13     0.73     4.78        1    36.58
  4335-10.1        RECT_CLOSED          2.00     4.56     0.53     2.28        1     0.32
  4335-11.1        RECT_CLOSED          1.98     6.24     0.61     3.15        1    33.37
  4335-13.1        RECT_CLOSED          1.23     2.25     0.37     1.83        1     6.76
  4335-01.1        RECT_CLOSED          2.07     8.67     0.69     4.19        1    19.43
  4434-31.1        CIRCULAR             1.20     1.13     0.30     1.20        1     1.00
  4434-32.1        CIRCULAR             1.20     1.13     0.30     1.20        1     3.90
  4434-33.1        CIRCULAR             1.20     1.13     0.30     1.20        1     2.45
  4435-03.1        CIRCULAR             1.50     1.77     0.38     1.50        1     3.59
  4435-04.1        RECT_CLOSED          1.87     5.67     0.58     3.03        1    36.20
  4536-01.1        CIRCULAR             1.20     1.13     0.30     1.20        1     3.15
  4536-02.1        CIRCULAR             1.20     1.13     0.30     1.20        1     1.93
  4536-03.1        CIRCULAR             1.50     1.77     0.38     1.50        1     4.70
  4334-809.1       RECT_CLOSED          1.30     3.25     0.43     2.50        1    10.75
  4335-09.1        CIRCULAR             1.35     1.43     0.34     1.35        1     4.88
  4335-12.1        RECT_CLOSED          2.00     5.00     0.56     2.50        1    10.62
  4335-801.1       RECT_CLOSED          1.70     9.35     0.65     5.50        1     2.28
  4335-802.1       RECT_CLOSED          1.70    10.71     0.67     6.30        1    61.45
  4335-803.1       RECT_CLOSED          1.70    10.71     0.67     6.30        1    32.70
  4335-804.1       RECT_CLOSED          1.70    10.88     0.67     6.40        1    30.82
  4335-805.1       RECT_CLOSED          1.65    10.48     0.65     6.35        1    77.21
  4335-806.1       RECT_CLOSED          1.65     8.58     0.63     5.20        1    26.12
  4335-808.1       RECT_CLOSED          1.65     8.58     0.63     5.20        1    56.71
  4335-809.1       RECT_CLOSED          2.00     6.80     0.63     3.40        1    34.17
  4335-811.1       RECT_CLOSED          2.10     6.30     0.62     3.00        1    14.90
  4335-812.1       RECT_CLOSED          1.50     3.60     0.46     2.40        1    27.60
  4335-813.1       RECT_CLOSED          1.50     3.90     0.48     2.60        1    33.16
  4335-814.1       RECT_CLOSED          1.50     4.05     0.48     2.70        1     4.36
  4335-815.1       RECT_CLOSED          1.50     4.05     0.48     2.70        1    12.98
  4335-816.1       RECT_CLOSED          2.00     6.00     0.60     3.00        1    29.76
  4335-817.1       RECT_CLOSED          2.00     6.20     0.61     3.10        1    23.66
  4335-818.1       RECT_CLOSED          2.00     6.20     0.61     3.10        1    14.83
  4335-819.1       RECT_CLOSED          2.00     6.20     0.61     3.10        1    18.87
  4335-820.1       RECT_CLOSED          2.10     9.45     0.72     4.50        1    33.29
  4335-823.1       RECT_CLOSED          2.60    11.44     0.82     4.40        1    72.62
  4335-826.1       RECT_CLOSED          2.00     5.00     0.56     2.50        1    24.09
  4335-827.1       CIRCULAR             1.35     1.43     0.34     1.35        1     7.36
  4335-828.1       CIRCULAR             1.35     1.43     0.34     1.35        1     5.31
  4335-829.1       CIRCULAR             1.35     1.43     0.34     1.35        1     2.60
  4335-830.1       CIRCULAR             1.35     1.43     0.34     1.35        1     7.28
  4335-831.1       CIRCULAR             1.35     1.43     0.34     1.35        1    10.14
  4336-801.1       RECT_CLOSED          1.10     1.76     0.33     1.60        1     2.73
  4435-801.1       CIRCULAR             1.50     1.77     0.38     1.50        1     6.74
  4435-802.1       CIRCULAR             1.50     1.77     0.38     1.50        1     4.76
  4435-803.1       CIRCULAR             1.50     1.77     0.38     1.50        1     0.80
  4435-804.1       CIRCULAR             1.50     1.77     0.38     1.50        1     6.25
  4435-805.1       CIRCULAR             1.50     1.77     0.38     1.50        1     2.17
  4435-806.1       CIRCULAR             1.50     1.77     0.38     1.50        1    10.69
  4435-809.1       RECT_CLOSED          1.70     6.46     0.59     3.80        1    70.23
  4435-811.1       RECT_CLOSED          1.40     4.20     0.48     3.00        1     2.33
  4435-812.1       RECT_CLOSED          1.50     4.50     0.50     3.00        1    34.46
  4435-813.1       RECT_CLOSED          1.50     4.50     0.50     3.00        1     9.72
  4435-814.1       RECT_CLOSED          1.50     4.50     0.50     3.00        1    13.37
  4435-829.1       CIRCULAR             1.70     2.27     0.42     1.70        1     1.98
  4435-831.1       RECT_CLOSED          1.70     7.48     0.61     4.40        1     1.33
  4435-833.1       RECT_CLOSED          1.10     1.76     0.33     1.60        1     2.91
  4536-04.1        CIRCULAR             1.50     1.77     0.38     1.50        1     3.93
  4335-08.1        RECT_CLOSED          2.12    10.13     0.73     4.78        1    42.00
  4435-830.1       RECT_CLOSED          1.70     6.46     0.59     3.80        1     0.38
  4435-05.1        RECT_CLOSED          1.70     6.46     0.59     3.80        1    70.23
  F4435-05a.1      RECT_CLOSED          1.70     6.46     0.59     3.80        1    89.08
  4435-807.1       CIRCULAR             1.50     1.77     0.38     1.50        1     9.02
  4435-808a.1      RECT_CLOSED          1.70     6.46     0.59     3.80        1    68.70
  4435-808.1       CIRCULAR             1.00     0.79     0.25     1.00        1     2.94
  4435-506.1       CIRCULAR             1.00     0.79     0.25     1.00        1     3.01
  4335-807.1       CIRCULAR             1.00     0.79     0.25     1.00        1     2.32
  4335-807a.1      RECT_CLOSED          1.65     8.58     0.63     5.20        1    26.05
  4335-821.1       RECT_CLOSED          2.10     9.45     0.72     4.50        1    29.11
  F4335-825b.1     RECT_CLOSED          2.00     5.00     0.56     2.50        1    27.95
  F4335-825a.1     RECT_CLOSED          2.00     5.00     0.56     2.50        1    27.17
  4335-825.1       RECT_CLOSED          2.10     6.30     0.62     3.00        1    30.47
  4434-34.1        CIRCULAR             1.20     1.13     0.30     1.20        1     3.09
  4335-14.1        RECT_CLOSED          1.23     2.25     0.37     1.83        1     9.56
  4435-810.1       RECT_CLOSED          1.70     6.46     0.59     3.80        1     7.44
  4435-502.1       CIRCULAR             1.00     0.79     0.25     1.00        1     5.09
  4335-09.2        RECT_CLOSED          2.00     4.56     0.53     2.28        1    58.60
  4535-F551.1      CIRCULAR             1.30     1.33     0.33     1.30        1     4.93
  4535-513.1       CIRCULAR             1.30     1.33     0.33     1.30        1     4.99
  4535-512.1       CIRCULAR             1.00     0.79     0.25     1.00        1     1.07
  4535-511.1       CIRCULAR             1.00     0.79     0.25     1.00        1     2.46
  4435-508.1       CIRCULAR             0.90     0.64     0.23     0.90        1     0.07
  4435-507.1       CIRCULAR             1.30     1.33     0.33     1.30        1     0.96
  4435-507.2       CIRCULAR             1.30     1.33     0.33     1.30        1     0.25
  4435-509.1       CIRCULAR             1.20     1.13     0.30     1.20        1     0.05
  4435-815.1       CIRCULAR             1.50     1.77     0.38     1.50        1     0.08
  4435-817.1       CIRCULAR             1.20     1.13     0.30     1.20        1     0.19
  4435-818.1       CIRCULAR             1.50     1.77     0.38     1.50        1     0.01
  4435-819.1       CIRCULAR             1.70     2.27     0.42     1.70        1     0.25
  4435-823.1       CIRCULAR             1.70     2.27     0.42     1.70        1     4.82
  4535-817.1       CIRCULAR             1.20     1.13     0.30     1.20        1     0.12
  4535-818.1       CIRCULAR             1.40     1.54     0.35     1.40        1     0.09
  4535-819.1       CIRCULAR             1.40     1.54     0.35     1.40        1     0.30
  4535-820.1       CIRCULAR             1.40     1.54     0.35     1.40        1     1.36
  4535-821.1       CIRCULAR             1.40     1.54     0.35     1.40        1     1.97
  4535-822.1       CIRCULAR             1.70     2.27     0.42     1.70        1     8.27
  4535-823.1       CIRCULAR             1.30     1.33     0.33     1.30        1     2.03
  F4435-816a.1     CIRCULAR             1.50     1.77     0.38     1.50        1     0.07
  4435-816.1       CIRCULAR             1.20     1.13     0.30     1.20        1     0.35
  4535-514.1       CIRCULAR             1.30     1.33     0.33     1.30        1     2.94
  4235-810.1       CIRCULAR             1.20     1.13     0.30     1.20        1     2.68
  4235-811.1       CIRCULAR             1.20     1.13     0.30     1.20        1     0.59
  4335-835.1       CIRCULAR             1.20     1.13     0.30     1.20        1     2.29
  4335-504.1       CIRCULAR             1.20     1.13     0.30     1.20        1     3.20
  4335-506.1       CIRCULAR             1.00     0.79     0.25     1.00        1     2.39
  4335-507.1       CIRCULAR             1.00     0.79     0.25     1.00        1     2.30
  4335-508.1       CIRCULAR             1.00     0.79     0.25     1.00        1     0.99
  4435-820.1       CIRCULAR             1.70     2.27     0.42     1.70        1     0.17
  4435-822.1       CIRCULAR             1.70     2.27     0.42     1.70        1     0.18
  4335-824.1       RECT_CLOSED          2.60    11.44     0.82     4.40        1   245.17
  05640601.2       RECT_CLOSED          2.60    11.44     0.82     4.40        1     5.21
  05640604.1       CIRCULAR             1.52     1.81     0.38     1.52        1     1.11
  4435-821.1       CIRCULAR             1.70     2.27     0.42     1.70        1     0.23
  4435-824.1       CIRCULAR             1.80     2.54     0.45     1.80        1     2.24
  4435-827.1       CIRCULAR             1.40     1.54     0.35     1.40        1    11.91
  4435-826.1       CIRCULAR             1.50     1.77     0.38     1.50        1    59.33
  4435-825.1       CIRCULAR             1.70     2.27     0.42     1.70        1    51.87
  05647801.1       RECT_CLOSED          1.70     6.46     0.59     3.80        1     0.35
  4435-832.1       RECT_CLOSED          1.10     1.76     0.33     1.60        1     2.56
  4335-505.1       CIRCULAR             1.20     1.13     0.30     1.20        1     3.05
  04649701.1       CIRCULAR             1.20     1.13     0.30     1.20        1     3.00
  04649601.1       CIRCULAR             1.20     1.13     0.30     1.20        1     2.98
  04649602.1       CIRCULAR             1.20     1.13     0.30     1.20        1     3.02
  05640605.1       CIRCULAR             1.20     1.13     0.30     1.20        1     3.01
  4335-802.2       RECT_CLOSED          2.07     8.67     0.69     4.19        1    82.24
  
  
  ****************
  Analysis Options
  ****************
  Flow Units ............... CMS
  Process Models:
    Rainfall/Runoff ........ YES
    RDII ................... NO
    Snowmelt ............... NO
    Groundwater ............ NO
    Flow Routing ........... YES
    Ponding Allowed ........ NO
    Water Quality .......... NO
  Infiltration Method ...... HORTON
  Flow Routing Method ...... DYNWAVE
  Surcharge Method ......... EXTRAN
  Starting Date ............ 07/17/2005 05:39:00
  Ending Date .............. 07/18/2005 16:40:00
  Antecedent Dry Days ...... 0.0
  Report Time Step ......... 01:00:00
  Wet Time Step ............ 00:01:00
  Dry Time Step ............ 00:01:00
  Routing Time Step ........ 10.00 sec
  Variable Time Step ....... YES
  Maximum Trials ........... 8
  Number of Threads ........ 1
  Head Tolerance ........... 0.001500 m
  
  
  **************************        Volume         Depth
  Runoff Quantity Continuity     hectare-m            mm
  **************************     ---------       -------
  Total Precipitation ......        43.232       273.500
  Evaporation Loss .........         0.000         0.000
  Infiltration Loss ........         0.001         0.009
  Surface Runoff ...........        47.642       301.401
  Final Storage ............         0.574         3.633
  Continuity Error (%) .....       -11.533
  
  
  **************************        Volume        Volume
  Flow Routing Continuity        hectare-m      10^6 ltr
  **************************     ---------     ---------
  Dry Weather Inflow .......         0.000         0.000
  Wet Weather Inflow .......        47.641       476.412
  Groundwater Inflow .......         0.000         0.000
  RDII Inflow ..............         0.000         0.000
  External Inflow ..........         0.004         0.044
  External Outflow .........         1.300        13.004
  Flooding Loss ............        45.066       450.665
  Evaporation Loss .........         0.000         0.000
  Exfiltration Loss ........         0.000         0.000
  Initial Stored Volume ....         0.001         0.014
  Final Stored Volume ......         1.503        15.026
  Continuity Error (%) .....        -0.467
  
  
  *************************
  Highest Continuity Errors
  *************************
  Node 4335-824 (2.08%)
  Node 4335-821 (1.38%)
  Node 4335-820 (1.32%)
  Node 4435-829 (-1.14%)
  Node 4335-813 (1.08%)
  
  
  ***************************
  Time-Step Critical Elements
  ***************************
  Link 4335-831.1 (58.41%)
  Link 4435-808.1 (33.93%)
  Link 4335-09.2 (4.86%)
  Link 4335-826.1 (1.97%)
  
  
  ********************************
  Highest Flow Instability Indexes
  ********************************
  Link 05640601.2 (69)
  Link 4335-824.1 (43)
  Link 4435-808.1 (35)
  Link 05647801.1 (30)
  Link 4435-830.1 (24)
  
  
  *********************************
  Most Frequent Nonconverging Nodes
  *********************************
  Node MH05640504 (10.98%)
  Node 4435-823 (5.25%)
  Node MH04649601 (2.49%)
  Node MH04649602 (2.23%)
  Node MH05640605 (1.51%)
  
  
  *************************
  Routing Time Step Summary
  *************************
  Minimum Time Step           :     0.45 sec
  Average Time Step           :     0.86 sec
  Maximum Time Step           :    10.00 sec
  % of Time in Steady State   :     0.00
  Average Iterations per Step :     3.18
  % of Steps Not Converging   :    10.98
  Time Step Frequencies       :
     10.000 -  5.493 sec      :     0.01 %
      5.493 -  3.017 sec      :     0.09 %
      3.017 -  1.657 sec      :     0.03 %
      1.657 -  0.910 sec      :    39.30 %
      0.910 -  0.500 sec      :    60.56 %
  
  
  ***************************
  Subcatchment Runoff Summary
  ***************************
  
  ------------------------------------------------------------------------------------------------------------------------------
                            Total      Total      Total      Total     Imperv       Perv      Total       Total     Peak  Runoff
                           Precip      Runon       Evap      Infil     Runoff     Runoff     Runoff      Runoff   Runoff   Coeff
  Subcatchment                 mm         mm         mm         mm         mm         mm         mm    10^6 ltr      CMS
  ------------------------------------------------------------------------------------------------------------------------------
  1                        273.50       0.00       0.00       0.00     243.85      27.09     270.95        7.56     0.19   0.991
  2                        273.50       0.00       0.00       0.00     210.72      27.27     237.99        0.64     0.02   0.870
  3                        273.50       0.00       0.00       0.00     363.32      26.99     390.31        1.25     0.03   1.427
  4                        273.50       0.00       0.00       0.00     194.44      27.12     221.56        3.77     0.09   0.810
  5                        273.50       0.00       0.00       0.00     313.32      27.31     340.63        1.87     0.05   1.245
  6                        273.50       0.00       0.00       0.00     260.69      27.16     287.85        1.27     0.03   1.052
  7                        273.50       0.00       0.00       0.00     260.42      26.97     287.39        0.72     0.02   1.051
  8                        273.50       0.00       0.00       0.00     273.09      27.11     300.19        0.84     0.02   1.098
  9                        273.50       0.00       0.00       0.01     334.81      54.60     389.41        1.64     0.04   1.424
  10                       273.50       0.00       0.00       0.00     278.20      27.28     305.48        2.57     0.06   1.117
  13                       273.50       0.00       0.00       0.01     211.68     108.53     320.21       14.60     0.36   1.171
  14                       273.50       0.00       0.00       0.00     186.19      27.24     213.43        1.00     0.02   0.780
  15                       273.50       0.00       0.00       0.01     249.47     133.38     382.85       75.81     1.87   1.400
  16                       273.50       0.00       0.00       0.01     299.52      54.62     354.14        2.23     0.05   1.295
  17                       273.50       0.00       0.00       0.02      98.15     188.09     286.23        9.13     0.23   1.047
  18                       273.50       0.00       0.00       0.01     146.36     135.31     281.67        3.80     0.09   1.030
  19                       273.50       0.00       0.00       0.01     127.90     135.54     263.44        3.66     0.09   0.963
  22                       273.50       0.00       0.00       0.01     102.82     134.03     236.85        5.35     0.13   0.866
  23                       273.50       0.00       0.00       0.01     130.99     134.13     265.12        4.27     0.11   0.969
  24                       273.50       0.00       0.00       0.00     194.88      27.00     221.88       10.87     0.27   0.811
  25                       273.50       0.00       0.00       0.00     239.66      26.93     266.59        3.23     0.08   0.975
  26                       273.50       0.00       0.00       0.00     193.10      27.28     220.38        0.57     0.01   0.806
  27                       273.50       0.00       0.00       0.01     207.92      54.53     262.45        0.66     0.02   0.960
  28                       273.50       0.00       0.00       0.00     223.44      26.84     250.29        0.95     0.02   0.915
  29                       273.50       0.00       0.00       0.00     199.16      26.95     226.11        0.99     0.02   0.827
  30                       273.50       0.00       0.00       0.00     211.43      27.03     238.46        5.37     0.13   0.872
  31                       273.50       0.00       0.00       0.00     246.96      27.15     274.11        1.75     0.04   1.002
  32                       273.50       0.00       0.00       0.00     277.92      26.91     304.84        2.90     0.07   1.115
  33                       273.50       0.00       0.00       0.00     188.59      27.12     215.71        2.35     0.06   0.789
  34                       273.50       0.00       0.00       0.01     262.96      81.42     344.38        3.68     0.09   1.259
  35                       273.50       0.00       0.00       0.00     252.07      27.11     279.18        1.40     0.03   1.021
  36                       273.50       0.00       0.00       0.00     280.32      27.11     307.43        1.44     0.04   1.124
  38                       273.50       0.00       0.00       0.00     212.14      27.29     239.43        4.24     0.10   0.875
  39                       273.50       0.00       0.00       0.00     280.05      27.18     307.23        1.23     0.03   1.123
  40                       273.50       0.00       0.00       0.01     386.70      54.61     441.31        0.40     0.01   1.614
  41                       273.50       0.00       0.00       0.00     231.75      26.87     258.61        0.72     0.02   0.946
  42                       273.50       0.00       0.00       0.00     201.15      27.26     228.41        0.37     0.01   0.835
  43                       273.50       0.00       0.00       0.00     214.42      27.19     241.60        0.27     0.01   0.883
  44                       273.50       0.00       0.00       0.00     210.20      26.87     237.07        2.56     0.06   0.867
  45                       273.50       0.00       0.00       0.00     323.50      26.97     350.47        0.81     0.02   1.281
  46                       273.50       0.00       0.00       0.00     226.55      26.98     253.53        0.94     0.02   0.927
  47                       273.50       0.00       0.00       0.00     212.46      26.91     239.36        3.73     0.09   0.875
  49                       273.50       0.00       0.00       0.00     359.27      26.79     386.06       22.35     0.55   1.412
  50                       273.50       0.00       0.00       0.00     403.16      27.10     430.25       17.25     0.43   1.573
  51                       273.50       0.00       0.00       0.00     267.18      27.15     294.34        3.80     0.09   1.076
  52                       273.50       0.00       0.00       0.01     260.79      54.21     315.00        6.65     0.16   1.152
  53                       273.50       0.00       0.00       0.00     191.55      27.05     218.59        3.61     0.09   0.799
  54                       273.50       0.00       0.00       0.00     267.07      27.14     294.21        5.80     0.14   1.076
  55                       273.50       0.00       0.00       0.00     332.22      26.83     359.05        4.38     0.11   1.313
  56                       273.50       0.00       0.00       0.00     200.74      27.06     227.80        2.44     0.06   0.833
  57                       273.50       0.00       0.00       0.00     314.86      27.29     342.15        1.09     0.03   1.251
  58                       273.50       0.00       0.00       0.00     182.10      27.18     209.28        0.50     0.01   0.765
  59                       273.50       0.00       0.00       0.02     114.59     190.90     305.49        0.52     0.01   1.117
  60                       273.50       0.00       0.00       0.02     163.77     190.14     353.91        1.52     0.04   1.294
  61                       273.50       0.00       0.00       0.01     315.35      53.48     368.83       31.76     0.78   1.349
  62                       273.50       0.00       0.00       0.00     279.56      26.86     306.42        0.64     0.02   1.120
  63                       273.50       0.00       0.00       0.00     221.21      26.97     248.18        4.62     0.11   0.907
  64                       273.50       0.00       0.00       0.00     185.71      26.86     212.58        0.74     0.02   0.777
  65                       273.50       0.00       0.00       0.00     248.63      26.97     275.60        0.33     0.01   1.008
  66                       273.50       0.00       0.00       0.00     207.59      27.12     234.71        0.38     0.01   0.858
  67                       273.50       0.00       0.00       0.00     265.27      26.93     292.21        0.38     0.01   1.068
  68                       273.50       0.00       0.00       0.00     430.40      27.16     457.57        6.63     0.16   1.673
  69                       273.50       0.00       0.00       0.02      70.00     186.79     256.78       37.29     0.91   0.939
  70                       273.50       0.00       0.00       0.02     173.41     187.59     361.00       11.99     0.30   1.320
  71                       273.50       0.00       0.00       0.02     124.02     188.72     312.74       15.04     0.37   1.143
  107                      273.50       0.00       0.00       0.00     208.38      27.16     235.54        3.09     0.08   0.861
  108                      273.50       0.00       0.00       0.00     195.32      27.05     222.37        1.31     0.03   0.813
  109                      273.50       0.00       0.00       0.00     230.25      27.12     257.37        5.17     0.13   0.941
  110                      273.50       0.00       0.00       0.00     239.87      27.12     266.99       17.01     0.42   0.976
  111                      273.50       0.00       0.00       0.00     197.25      27.32     224.57        0.45     0.01   0.821
  112                      273.50       0.00       0.00       0.00     184.32      27.29     211.61        0.70     0.02   0.774
  113                      273.50       0.00       0.00       0.00     221.54      26.89     248.43        3.83     0.09   0.908
  114                      273.50       0.00       0.00       0.00     226.77      27.13     253.90        8.61     0.21   0.928
  115                      273.50       0.00       0.00       0.00     269.94      27.21     297.15        1.31     0.03   1.086
  116                      273.50       0.00       0.00       0.00     190.49      26.93     217.42        0.54     0.01   0.795
  117                      273.50       0.00       0.00       0.00     190.88      27.30     218.18        1.27     0.03   0.798
  118                      273.50       0.00       0.00       0.00     190.20      26.99     217.19        0.48     0.01   0.794
  119                      273.50       0.00       0.00       0.00     205.59      27.04     232.62        5.09     0.12   0.851
  120                      273.50       0.00       0.00       0.00     203.54      26.92     230.46        0.55     0.01   0.843
  121                      273.50       0.00       0.00       0.00     210.64      26.89     237.53        2.02     0.05   0.868
  122                      273.50       0.00       0.00       0.02     170.16     189.19     359.36        3.27     0.08   1.314
  123                      273.50       0.00       0.00       0.02      62.80     187.60     250.40        1.40     0.03   0.916
  124                      273.50       0.00       0.00       0.02     150.15     188.65     338.81        8.44     0.21   1.239
  125                      273.50       0.00       0.00       0.00     215.51      27.13     242.64        0.63     0.02   0.887
  126                      273.50       0.00       0.00       0.00     303.36      27.22     330.59        0.60     0.01   1.209
  127                      273.50       0.00       0.00       0.02     173.17     188.51     361.68       12.37     0.30   1.322
  130                      273.50       0.00       0.00       0.00     232.31      26.94     259.25        2.36     0.06   0.948
  131                      273.50       0.00       0.00       0.01     176.72      53.86     230.58        1.31     0.03   0.843
  132                      273.50       0.00       0.00       0.01     352.98      54.29     407.27        1.30     0.03   1.489
  133                      273.50       0.00       0.00       0.00     219.11      27.29     246.40        0.30     0.01   0.901
  134                      273.50       0.00       0.00       0.00     245.91      27.19     273.09        4.89     0.12   0.999
  135                      273.50       0.00       0.00       0.00     187.20      26.99     214.19        0.34     0.01   0.783
  136                      273.50       0.00       0.00       0.00     211.00      26.88     237.88        0.26     0.01   0.870
  187                      273.50       0.00       0.00       0.00     199.41      27.20     226.60       14.43     0.35   0.829
  
  
  ******************
  Node Depth Summary
  ******************
  
  ---------------------------------------------------------------------------------
                                 Average  Maximum  Maximum  Time of Max    Reported
                                   Depth    Depth      HGL   Occurrence   Max Depth
  Node                 Type       Meters   Meters   Meters  days hr:min      Meters
  ---------------------------------------------------------------------------------
  4235-810             JUNCTION     0.07     0.12    14.00     0  23:00        0.12
  4235-811             JUNCTION     0.16     0.28    13.87     0  22:58        0.28
  4334-809             JUNCTION     0.44     0.53    13.90     0  23:00        0.53
  4335-01              JUNCTION     0.85     1.03    13.57     0  06:48        0.99
  4335-02              JUNCTION     0.98     1.22    13.62     0  06:47        1.20
  4335-03              JUNCTION     1.08     1.30    13.59     0  21:37        1.26
  4335-04              JUNCTION     1.12     1.44    13.68     0  23:38        1.42
  4335-05              JUNCTION     1.05     1.57    13.89     0  23:57        1.35
  4335-06              JUNCTION     1.33     1.75    13.77     0  23:58        1.68
  4335-07              JUNCTION     1.24     1.51    13.62     0  21:32        1.46
  4335-08              JUNCTION     1.46     1.72    13.60     1  04:14        1.70
  4335-09              JUNCTION     0.88     1.19    13.69     0  22:59        1.04
  4335-10              JUNCTION     1.43     1.70    13.60     0  22:55        1.67
  4335-11              JUNCTION     1.42     1.62    13.52     0  22:31        1.62
  4335-12              JUNCTION     2.16     2.44    13.54     0  23:01        2.43
  4335-13              JUNCTION     0.07     0.15    13.62     0  22:45        0.15
  4335-14              JUNCTION     0.40     0.69    13.69     0  06:48        0.64
  4335-504             JUNCTION     0.34     0.51    13.68     0  22:33        0.51
  4335-505             JUNCTION     0.50     0.65    13.65     0  22:32        0.63
  4335-506             JUNCTION     0.03     0.06    14.01     0  23:00        0.06
  4335-507             JUNCTION     0.07     0.11    14.06     0  23:00        0.11
  4335-508             JUNCTION     0.04     0.07    14.21     0  23:00        0.07
  4335-801             JUNCTION     1.65     2.07    14.01     0  22:56        2.07
  4335-802             JUNCTION     1.98     2.25    13.57     0  06:48        2.22
  4335-803             JUNCTION     0.96     1.14    13.56     0  06:48        1.12
  4335-804             JUNCTION     1.23     1.43    13.56     0  06:48        1.40
  4335-805             JUNCTION     1.52     1.82    13.64     0  06:49        1.73
  4335-806             JUNCTION     1.73     1.96    13.56     0  06:49        1.94
  4335-807             JUNCTION     0.78     1.05    13.65     0  06:46        0.98
  4335-807a            JUNCTION     0.88     1.07    13.57     0  06:46        1.04
  4335-808             JUNCTION     1.09     1.28    13.54     0  06:48        1.25
  4335-809             JUNCTION     2.01     2.41    13.68     0  06:34        2.25
  4335-811             JUNCTION     2.20     2.70    13.77     0  06:34        2.45
  4335-812             JUNCTION     0.03     0.07    13.86     0  23:00        0.07
  4335-813             JUNCTION     1.57     1.79    13.58     0  06:45        1.77
  4335-814             JUNCTION     0.60     0.73    13.57     0  06:46        0.72
  4335-815             JUNCTION     0.61     0.76    13.58     0  23:09        0.75
  4335-816             JUNCTION     0.91     1.18    13.67     0  23:04        1.15
  4335-817             JUNCTION     1.23     1.55    13.69     0  22:57        1.51
  4335-818             JUNCTION     1.55     1.81    13.60     0  23:11        1.79
  4335-819             JUNCTION     1.62     1.89    13.60     0  22:58        1.87
  4335-820             JUNCTION     1.78     2.05    13.59     0  23:05        2.03
  4335-821             JUNCTION     1.94     2.23    13.60     0  22:56        2.20
  4335-823             JUNCTION     1.92     2.18    13.60     0  22:35        2.16
  4335-824             JUNCTION     2.58     2.90    13.62     0  22:37        2.87
  4335-825             JUNCTION     2.30     2.73    13.69     0  06:16        2.54
  4335-826             JUNCTION     2.30     2.55    13.51     0  06:16        2.54
  4335-827             JUNCTION     1.06     2.39    14.71     0  06:57        1.29
  4335-828             JUNCTION     0.77     0.96    13.59     0  06:49        0.93
  4335-829             JUNCTION     0.96     1.24    13.73     0  22:59        1.23
  4335-830             JUNCTION     0.45     0.81    13.79     0  06:50        0.75
  4335-831             JUNCTION     0.22     0.41    13.77     0  22:56        0.40
  4335-835             JUNCTION     0.12     0.20    13.76     0  22:47        0.20
  4336-801             JUNCTION     0.00     0.02    14.08     0  23:00        0.02
  4434-31              JUNCTION     0.13     0.22    14.41     0  23:00        0.22
  4434-32              JUNCTION     0.08     0.14    14.22     0  23:00        0.14
  4434-33              JUNCTION     0.17     0.29    14.21     0  23:00        0.29
  4434-34              JUNCTION     0.11     0.21    14.03     0  23:00        0.21
  4435-03              JUNCTION     0.15     0.24    15.40     0  07:23        0.22
  4435-04              JUNCTION     0.26     0.48    15.39     0  07:22        0.47
  4435-05              JUNCTION     1.78     2.35    15.39     0  07:22        2.33
  4435-501             JUNCTION     0.06     0.11    17.43     0  23:00        0.11
  4435-502             JUNCTION     0.07     0.12    16.25     0  23:00        0.12
  4435-503             JUNCTION     0.44     0.76    15.41     0  07:22        0.73
  4435-504             JUNCTION     0.47     0.82    15.41     0  07:22        0.79
  4435-505             JUNCTION     0.55     0.96    15.43     0  07:22        0.91
  4435-506             JUNCTION     0.85     1.33    15.40     0  07:22        1.30
  4435-507             JUNCTION     0.33     0.60    15.45     0  07:24        0.58
  4435-508             JUNCTION     0.45     0.86    15.71     0  22:59        0.86
  4435-509             JUNCTION     0.46     1.15    16.04     0  22:59        1.15
  4435-510             JUNCTION     0.07     0.13    16.88     0  23:00        0.13
  4435-801             JUNCTION     0.31     0.58    17.69     0  22:47        0.56
  4435-802             JUNCTION     0.68     1.16    17.70     0  22:49        1.15
  4435-803             JUNCTION     0.99     1.46    17.68     0  22:48        1.45
  4435-804             JUNCTION     0.29     0.55    17.30     0  22:48        0.55
  4435-805             JUNCTION     0.37     0.71    16.88     0  22:48        0.71
  4435-806             JUNCTION     0.22     0.42    16.40     0  22:49        0.41
  4435-807             JUNCTION     1.12     1.79    15.55     0  11:06        1.63
  4435-808             JUNCTION     1.04     2.26    16.10     0  06:55        1.53
  4435-808a            JUNCTION     1.84     2.42    15.40     0  19:30        2.39
  4435-809             JUNCTION     1.87     2.42    15.37     0  06:50        2.42
  4435-810             JUNCTION     1.91     2.47    15.38     0  07:22        2.46
  4435-811             JUNCTION     1.25     1.79    15.41     0  10:42        1.75
  4435-812             JUNCTION     0.48     0.84    15.39     0  07:22        0.82
  4435-813             JUNCTION     0.66     1.02    15.39     0  11:17        1.00
  4435-814             JUNCTION     0.46     0.81    15.41     0  11:16        0.77
  4435-815             JUNCTION     1.07     1.99    16.20     0  22:49        1.98
  4435-816             JUNCTION     0.63     1.45    16.12     0  22:59        1.44
  4435-817             JUNCTION     0.48     1.23    16.09     0  22:59        1.23
  4435-818             JUNCTION     0.97     1.77    16.04     0  22:59        1.77
  4435-819             JUNCTION     0.93     1.67    15.94     0  22:58        1.67
  4435-820             JUNCTION     1.02     1.69    15.79     0  22:57        1.69
  4435-822             JUNCTION     1.05     1.62    15.51     0  22:57        1.58
  4435-823             JUNCTION     1.29     2.83    16.46     0  11:09        1.91
  4435-821             JUNCTION     1.03     1.61    15.62     0  22:57        1.59
  4435-824             JUNCTION     1.09     1.73    15.56     0  22:36        1.70
  4435-825             JUNCTION     0.85     2.36    16.44     0  19:18        1.57
  4435-826             JUNCTION     0.50     1.11    15.64     0  22:34        1.09
  4435-829             JUNCTION     1.11     1.70    15.48     0  22:03        1.68
  4435-830             JUNCTION     1.96     2.53    15.38     0  22:43        2.52
  4435-827             JUNCTION     0.49     0.96    15.52     0  20:33        0.91
  4435-831             JUNCTION     1.69     2.32    14.59     0  22:56        2.31
  4435-832             JUNCTION     0.10     0.20    13.94     0  22:59        0.20
  4435-833             JUNCTION     0.08     0.17    14.08     0  23:00        0.17
  4535-511             JUNCTION     0.07     0.12    17.62     0  23:00        0.12
  4535-512             JUNCTION     0.11     0.21    16.69     0  23:00        0.21
  4535-513             JUNCTION     0.11     0.19    16.47     0  23:00        0.19
  4535-514             JUNCTION     0.22     0.42    15.91     0  23:00        0.42
  4535-817             JUNCTION     0.53     1.43    16.26     0  22:54        1.43
  4535-818             JUNCTION     0.69     1.61    16.26     0  22:59        1.61
  4535-819             JUNCTION     0.78     1.71    16.25     0  22:48        1.71
  4535-820             JUNCTION     0.39     0.65    15.48     0  22:58        0.65
  4535-821             JUNCTION     0.39     0.65    15.47     0  22:57        0.64
  4535-822             JUNCTION     0.38     0.65    15.44     0  07:24        0.63
  4535-823             JUNCTION     0.34     0.64    15.47     0  07:23        0.60
  4535-F551            JUNCTION     0.11     0.19    16.00     0  23:00        0.19
  4536-01              JUNCTION     0.15     0.28    18.77     0  23:00        0.28
  4536-02              JUNCTION     0.43     0.71    18.23     0  23:00        0.71
  4536-03              JUNCTION     0.21     0.38    17.98     0  23:00        0.38
  4536-04              JUNCTION     0.47     0.80    17.93     0  22:47        0.79
  F4335-825a           JUNCTION     2.38     2.62    13.50     0  06:16        2.62
  F4335-825b           JUNCTION     2.08     2.33    13.55     0  21:48        2.32
  F4435-05a            JUNCTION     1.82     2.39    15.39     0  19:57        2.37
  F4435-816a           JUNCTION     1.03     1.88    16.12     0  22:46        1.87
  MH04649601           JUNCTION     0.99     2.15    14.59     0  06:45        1.22
  MH04649602           JUNCTION     1.31     4.10    16.19     0  06:31        1.54
  MH04649701           JUNCTION     0.72     1.06    13.80     0  22:49        0.88
  MH05640601           JUNCTION     2.58     2.90    13.62     0  22:37        2.87
  MH05640604           JUNCTION     1.01     2.15    16.85     0  00:00        1.02
  MH05640605           JUNCTION     1.66     3.22    14.92     0  06:31        1.90
  MH05647801           JUNCTION     1.62     2.15    14.96     0  22:54        2.14
  POND3                JUNCTION     3.03     3.37    13.62     0  22:23        3.34
  MH05640504           OUTFALL      1.01     1.01    15.71     0  00:00        1.01
  
  
  *******************
  Node Inflow Summary
  *******************
  
  -------------------------------------------------------------------------------------------------
                                  Maximum  Maximum                  Lateral       Total        Flow
                                  Lateral    Total  Time of Max      Inflow      Inflow     Balance
                                   Inflow   Inflow   Occurrence      Volume      Volume       Error
  Node                 Type           CMS      CMS  days hr:min    10^6 ltr    10^6 ltr     Percent
  -------------------------------------------------------------------------------------------------
  4235-810             JUNCTION     0.058    0.058     0  23:00        2.36        2.36       0.014
  4235-811             JUNCTION     0.032    0.090     0  23:00        1.31        3.67       0.054
  4334-809             JUNCTION     0.104    0.303     0  23:00        4.24        12.3       0.314
  4335-01              JUNCTION     0.000    1.217     1  00:13           0        66.9       0.332
  4335-02              JUNCTION     0.043    4.079     0  22:53        1.75         123       0.177
  4335-03              JUNCTION     0.133    2.291     0  23:30        5.35        89.3       0.330
  4335-04              JUNCTION     0.000    5.849     0  23:59           0         112       0.137
  4335-05              JUNCTION     0.000   10.077     0  23:57           0         168       0.242
  4335-06              JUNCTION     0.090    8.443     0  23:24        3.66         149       0.138
  4335-07              JUNCTION     0.094    3.954     0  23:37         3.8        97.7       0.340
  4335-08              JUNCTION     0.016    2.999     1  00:15       0.656        97.7       0.400
  4335-09              JUNCTION     0.226    2.035     0  06:45        9.13        53.3      -0.044
  4335-10              JUNCTION     0.000    2.118     0  19:49           0        50.2       0.498
  4335-11              JUNCTION     0.000    2.429     0  06:17           0        47.2       0.590
  4335-12              JUNCTION     0.063    2.205     0  06:19        2.57        49.8       0.493
  4335-13              JUNCTION     0.106    0.375     0  23:00        4.27        15.1       0.161
  4335-14              JUNCTION     0.000    2.050     0  22:44           0        54.9       0.250
  4335-504             JUNCTION     0.007    0.486     0  22:33       0.296        7.56       0.278
  4335-505             JUNCTION     0.120    0.678     0  22:33        4.89        13.9       0.099
  4335-506             JUNCTION     0.000    0.015     0  23:00           0       0.604       0.026
  4335-507             JUNCTION     0.006    0.015     0  23:00       0.262       0.604       0.077
  4335-508             JUNCTION     0.008    0.008     0  23:00       0.343       0.343       0.054
  4335-801             JUNCTION     0.058    1.996     0  22:46        2.35         164       0.328
  4335-802             JUNCTION     0.000    1.998     0  22:55           0         163       0.700
  4335-803             JUNCTION     0.071    1.462     0  07:28         2.9        98.3       0.585
  4335-804             JUNCTION     0.133    1.655     0  18:33        5.37         103       0.773
  4335-805             JUNCTION     0.025    1.878     0  06:51       0.995         104       0.709
  4335-806             JUNCTION     0.023    5.538     0  22:29       0.951         256       0.262
  4335-807             JUNCTION     0.000    0.305     0  21:39           0        2.04       0.609
  4335-807a            JUNCTION     0.014    5.345     0  22:46       0.573         255       0.063
  4335-808             JUNCTION     0.080    4.802     0  22:39        3.23         257       0.146
  4335-809             JUNCTION     0.000    4.682     0  22:49           0         257       0.134
  4335-811             JUNCTION     0.358    5.040     0  22:49        14.6         270       0.079
  4335-812             JUNCTION     0.018    0.321     0  23:00       0.724          13       0.010
  4335-813             JUNCTION     0.009    0.463     0  06:23       0.365        13.3       1.094
  4335-814             JUNCTION     0.007    0.573     0  06:39       0.266        13.6       0.356
  4335-815             JUNCTION     0.010    0.843     0  23:04       0.397        14.6       0.536
  4335-816             JUNCTION     0.030    2.598     0  23:04        1.23        26.9       0.475
  4335-817             JUNCTION     0.040    3.162     0  23:04        1.64        31.6       0.602
  4335-818             JUNCTION     0.021    1.995     0  06:19       0.841          22       1.065
  4335-819             JUNCTION     0.018    1.609     0  06:20       0.718        21.8       0.969
  4335-820             JUNCTION     0.031    2.315     0  06:19        1.27          23       1.340
[...]
  4335-823.1              1.00   0.00  0.00  0.00  0.99  0.00  0.00  0.00  0.09  0.00
  4335-826.1              1.00   0.00  0.00  0.00  1.00  0.00  0.00  0.00  0.03  0.00
  4335-827.1              1.00   0.00  0.00  0.00  0.91  0.03  0.06  0.00  0.00  0.00
  4335-828.1              1.00   0.00  0.00  0.00  0.90  0.04  0.00  0.06  0.07  0.00
  4335-829.1              1.00   0.00  0.01  0.00  0.88  0.00  0.10  0.00  0.01  0.00
  4335-830.1              1.00   0.00  0.00  0.00  0.99  0.00  0.00  0.01  0.22  0.00
  4335-831.1              1.00   0.00  0.00  0.00  0.34  0.56  0.00  0.10  0.58  0.00
  4336-801.1              1.00   0.00  0.80  0.00  0.20  0.00  0.00  0.00  0.31  0.00
  4435-801.1              1.00   0.03  0.00  0.00  0.93  0.03  0.00  0.01  0.87  0.00
  4435-802.1              1.00   0.00  0.03  0.00  0.97  0.00  0.00  0.00  0.04  0.00
  4435-803.1              1.00   0.05  0.00  0.03  0.00  0.00  0.00  0.93  0.00  0.00
  4435-804.1              1.00   0.00  0.00  0.00  0.02  0.93  0.00  0.05  0.86  0.00
  4435-805.1              1.00   0.00  0.00  0.00  0.00  0.00  0.00  1.00  0.00  0.00
  4435-806.1              1.00   0.00  0.00  0.00  0.86  0.13  0.00  0.00  0.99  0.00
  4435-809.1              1.00   0.00  0.01  0.00  0.99  0.00  0.00  0.00  0.06  0.00
  4435-811.1              1.00   0.00  0.00  0.00  0.93  0.00  0.00  0.07  0.09  0.00
  4435-812.1              1.00   0.00  0.00  0.00  0.99  0.01  0.00  0.00  0.29  0.00
  4435-813.1              1.00   0.00  0.00  0.00  1.00  0.00  0.00  0.00  0.06  0.00
  4435-814.1              1.00   0.00  0.00  0.00  1.00  0.00  0.00  0.00  0.30  0.00
  4435-829.1              1.00   0.02  0.00  0.00  0.89  0.01  0.08  0.00  0.00  0.00
  4435-831.1              1.00   0.00  0.00  0.00  1.00  0.00  0.00  0.00  0.02  0.00
  4435-833.1              1.00   0.00  0.00  0.00  1.00  0.00  0.00  0.00  0.91  0.00
  4536-04.1               1.00   0.00  0.04  0.00  0.96  0.00  0.00  0.00  0.00  0.00
  4335-08.1               1.00   0.00  0.00  0.00  0.99  0.00  0.00  0.00  0.07  0.00
  4435-830.1              1.00   0.01  0.00  0.00  0.99  0.00  0.00  0.00  0.00  0.00
  4435-05.1               1.00   0.00  0.00  0.00  0.92  0.07  0.00  0.00  0.00  0.00
  F4435-05a.1             1.00   0.01  0.00  0.00  0.92  0.07  0.00  0.00  0.04  0.00
  4435-807.1              1.00   0.00  0.00  0.00  0.91  0.00  0.00  0.08  0.11  0.00
  4435-808a.1             1.00   0.01  0.00  0.00  0.93  0.07  0.00  0.00  0.00  0.00
  4435-808.1              1.00   0.00  0.00  0.00  0.92  0.00  0.00  0.08  0.10  0.00
  4435-506.1              1.00   0.00  0.02  0.00  0.83  0.14  0.00  0.00  0.12  0.00
  4335-807.1              1.00   0.10  0.02  0.00  0.88  0.00  0.00  0.00  0.00  0.00
  4335-807a.1             1.00   0.00  0.09  0.00  0.89  0.01  0.00  0.00  0.10  0.00
  4335-821.1              1.00   0.00  0.00  0.00  1.00  0.00  0.00  0.00  0.01  0.00
  F4335-825b.1            1.00   0.01  0.00  0.00  0.99  0.00  0.00  0.00  0.07  0.00
  F4335-825a.1            1.00   0.01  0.00  0.00  0.98  0.00  0.00  0.01  0.06  0.00
  4335-825.1              1.00   0.01  0.00  0.01  0.97  0.00  0.01  0.00  0.00  0.00
  4434-34.1               1.00   0.00  0.00  0.00  1.00  0.00  0.00  0.00  0.97  0.00
  4335-14.1               1.00   0.02  0.00  0.00  0.89  0.00  0.00  0.09  0.11  0.00
  4435-810.1              1.00   0.00  0.00  0.00  1.00  0.00  0.00  0.00  0.02  0.00
  4435-502.1              1.00   0.00  0.00  0.00  0.92  0.07  0.00  0.00  0.95  0.00
  4335-09.2               1.00   0.00  0.00  0.00  0.99  0.01  0.00  0.00  0.12  0.00
  4535-F551.1             1.00   0.00  0.00  0.00  0.99  0.00  0.00  0.00  0.99  0.00
  4535-513.1              1.00   0.00  0.00  0.00  0.03  0.97  0.00  0.00  0.82  0.00
  4535-512.1              1.00   0.00  0.00  0.00  0.97  0.00  0.00  0.02  0.00  0.00
  4535-511.1              1.00   0.00  0.00  0.00  0.98  0.00  0.00  0.01  0.98  0.00
  4435-508.1              1.00   0.00  0.06  0.00  0.92  0.00  0.02  0.00  0.00  0.00
  4435-507.1              1.00   0.01  0.00  0.00  0.99  0.00  0.00  0.00  0.01  0.00
  4435-507.2              1.00   0.00  0.06  0.00  0.83  0.00  0.11  0.00  0.00  0.00
  4435-509.1              1.00   0.01  0.06  0.00  0.93  0.00  0.00  0.00  0.01  0.00
  4435-815.1              1.00   0.01  0.01  0.00  0.98  0.00  0.00  0.00  0.05  0.00
  4435-817.1              1.00   0.01  0.00  0.00  0.99  0.00  0.00  0.00  0.23  0.00
  4435-818.1              1.00   0.00  0.00  0.00  1.00  0.00  0.00  0.00  0.00  0.00
  4435-819.1              1.00   0.00  0.00  0.00  0.99  0.00  0.00  0.00  0.09  0.00
  4435-823.1              1.00   0.00  0.00  0.00  1.00  0.00  0.00  0.00  0.04  0.00
  4535-817.1              1.00   0.01  0.00  0.00  0.99  0.00  0.00  0.00  0.16  0.00
  4535-818.1              1.00   0.00  0.01  0.00  0.99  0.00  0.00  0.00  0.13  0.00
  4535-819.1              1.00   0.00  0.00  0.00  1.00  0.00  0.00  0.00  0.07  0.00
  4535-820.1              1.00   0.00  0.00  0.00  1.00  0.00  0.00  0.00  0.02  0.00
  4535-821.1              1.00   0.00  0.00  0.00  0.80  0.20  0.00  0.00  0.00  0.00
  4535-822.1              1.00   0.00  0.00  0.00  0.99  0.00  0.00  0.00  0.38  0.00
  4535-823.1              1.00   0.01  0.01  0.00  0.99  0.00  0.00  0.00  0.07  0.00
  F4435-816a.1            1.00   0.00  0.00  0.00  1.00  0.00  0.00  0.00  0.00  0.00
  4435-816.1              1.00   0.01  0.00  0.00  0.94  0.00  0.00  0.06  0.11  0.00
  4535-514.1              1.00   0.00  0.00  0.00  1.00  0.00  0.00  0.00  0.98  0.00
  4235-810.1              1.00   0.00  0.00  0.00  1.00  0.00  0.00  0.00  0.98  0.00
  4235-811.1              1.00   0.00  0.00  0.00  0.99  0.00  0.00  0.00  0.09  0.00
  4335-835.1              1.00   0.03  0.00  0.00  0.81  0.00  0.00  0.16  0.80  0.00
  4335-504.1              1.00   0.00  0.00  0.00  1.00  0.00  0.00  0.00  0.18  0.00
  4335-506.1              1.00   0.07  0.00  0.00  0.89  0.01  0.00  0.04  0.89  0.00
  4335-507.1              1.00   0.01  0.06  0.00  0.00  0.00  0.93  0.00  0.00  0.00
  4335-508.1              1.00   0.01  0.00  0.00  0.93  0.00  0.00  0.06  0.93  0.00
  4435-820.1              1.00   0.00  0.00  0.00  1.00  0.00  0.00  0.00  0.00  0.00
  4435-822.1              1.00   0.02  0.03  0.00  0.89  0.00  0.00  0.07  0.31  0.00
  4335-824.1              1.00   0.00  0.06  0.00  0.94  0.00  0.00  0.00  0.00  0.00
  05640601.2              1.00   0.03  0.00  0.00  0.96  0.00  0.00  0.01  0.02  0.00
  05640604.1              1.00   0.00  0.00  0.00  1.00  0.00  0.00  0.00  0.00  0.00
  4435-821.1              1.00   0.02  0.00  0.00  0.98  0.00  0.00  0.00  0.00  0.00
  4435-824.1              1.00   0.00  0.00  0.00  0.92  0.08  0.00  0.00  0.05  0.00
  4435-827.1              1.00   0.00  0.00  0.00  0.68  0.32  0.00  0.00  0.00  0.00
  4435-826.1              1.00   0.00  0.00  0.00  0.77  0.23  0.00  0.00  0.30  0.00
  4435-825.1              1.00   0.00  0.00  0.00  0.94  0.05  0.00  0.00  0.19  0.00
  05647801.1              1.00   0.04  0.00  0.00  0.93  0.00  0.00  0.03  0.09  0.00
  4435-832.1              1.00   0.00  0.02  0.00  0.97  0.00  0.00  0.00  0.05  0.00
  4335-505.1              1.00   0.00  0.00  0.00  0.91  0.09  0.00  0.00  0.09  0.00
  04649701.1              1.00   0.01  0.00  0.00  0.93  0.07  0.00  0.00  0.05  0.00
  04649601.1              1.00   0.01  0.00  0.00  0.93  0.06  0.00  0.00  0.03  0.00
  04649602.1              1.00   0.01  0.00  0.00  0.92  0.06  0.00  0.00  0.01  0.00
  05640605.1              1.00   0.02  0.00  0.00  0.93  0.00  0.00  0.06  0.04  0.00
  4335-802.2              1.00   0.00  0.11  0.00  0.89  0.00  0.00  0.00  0.00  0.00
  
  
  *************************
  Conduit Surcharge Summary
  *************************
  
  ----------------------------------------------------------------------------
                                                           Hours        Hours 
                         --------- Hours Full --------   Above Full   Capacity
  Conduit                Both Ends  Upstream  Dnstream   Normal Flow   Limited
  ----------------------------------------------------------------------------
  4435-510.1                  0.01      0.01      0.01     35.02         0.01
  4435-505.1                  0.01      0.01     20.51     35.02         0.01
  4435-504.1                  0.01      0.01      0.01     35.02         0.01
  4435-503.1                  0.01      0.01      0.01     35.02         0.01
  4435-501.1                  0.01      0.01      0.01     35.02         0.01
  4335-02.1                   0.01      0.01      0.01     35.02         0.01
  4335-03.1                   0.01      0.01      0.01     35.02         0.01
  4335-04.1                   0.01      0.01      0.01     35.02         0.01
  4335-05.1                   0.01      0.01      0.01     35.02         0.01
  4335-06.1                   0.01      0.01      0.01     35.02         0.01
  4335-07.1                   0.01      0.01      0.01     35.02         0.01
  4335-10.1                   0.01      0.01      0.01     35.02         0.01
  4335-11.1                   0.01      0.01     28.59     35.02         0.01
  4335-13.1                   0.01      0.01      0.01     35.02         0.01
  4335-01.1                   0.01      0.01      0.01     35.02         0.01
  4434-31.1                   0.01      0.01      0.01     35.02         0.01
  4434-32.1                   0.01      0.01      0.01     35.02         0.01
  4434-33.1                   0.01      0.01      0.01     35.02         0.01
  4435-03.1                   0.01      0.01      0.01     35.02         0.01
  4435-04.1                   0.01      0.01     21.46     35.02         0.01
  4536-01.1                   0.01      0.01      0.01     35.02         0.01
  4536-02.1                   0.01      0.01      0.01     35.02         0.01
  4536-03.1                   0.01      0.01      0.01     35.02         0.01
  4334-809.1                  0.01      0.01      0.01     35.02         0.01
  4335-09.1                   0.01      0.01      1.73     35.02         0.01
  4335-12.1                  28.61     28.61     28.81     35.02         0.01
  4335-801.1                 25.43     25.43     28.71     35.02         0.01
  4335-802.1                  0.01      0.01     28.71     35.02         0.01
  4335-803.1                  0.01      0.01      0.01     35.02         0.01
  4335-804.1                  0.01      0.01      3.53     35.02         0.01
  4335-805.1                 28.28     28.33     28.28     35.02         0.01
  4335-806.1                  0.01     28.38      0.01     35.02         0.01
  4335-808.1                  0.01      0.01     28.98     35.02         0.01
  4335-809.1                 28.42     28.42     28.70     35.02         0.01
  4335-811.1                 28.54     28.54     28.65     35.02         0.01
  4335-812.1                  0.01      0.01     28.43     35.02         0.01
  4335-813.1                  0.01      0.01     28.43     35.02         0.01
  4335-814.1                  0.01      0.01      0.01     35.02         0.01
  4335-815.1                  0.01      0.01      0.01     35.02         0.01
  4335-816.1                  0.01      0.01      0.01     35.02         0.01
  4335-817.1                  0.01      0.01      0.01     35.02         0.01
  4335-818.1                  0.01      0.01      0.01     35.02         0.01
  4335-819.1                  0.01      0.01      4.27     35.02         0.01
  4335-820.1                  0.01      0.01     28.30     35.02         0.01
  4335-823.1                  0.01      0.01     28.41     35.02         0.01
  4335-826.1                 28.82     28.83     29.10     35.02         0.02
  4335-827.1                  1.88     28.61      1.88     35.02         0.01
  4335-828.1                  0.01      0.01      1.84     35.02         0.01
  4335-829.1                  0.01      0.01      0.01     35.02         0.01
  4335-830.1                  0.01      0.01      0.01     35.02         0.01
  4335-831.1                  0.01      0.01      0.01     35.02         0.01
  4336-801.1                  0.01      0.01      0.01     35.02         0.01
  4435-801.1                  0.01      0.01      0.01     35.02         0.01
  4435-802.1                  0.01      0.01      0.01     35.02         0.01
  4435-803.1                  0.01      0.01      0.01     35.02         0.01
  4435-804.1                  0.01      0.01      0.01     35.02         0.01
  4435-805.1                  0.01      0.01      0.01     35.02         0.01
  4435-806.1                  0.01      0.01     18.55     35.02         0.01
  4435-809.1                 23.87     23.88     24.15     35.02         0.03
  4435-811.1                 20.96     20.96     25.97     35.02         0.34
  4435-812.1                  0.01      0.01     20.09     35.02         0.01
  4435-813.1                  0.01      0.01      0.01     35.02         0.01
  4435-814.1                  0.01      0.01      0.01     35.02         0.01
  4435-829.1                  0.01     22.60      0.01     35.02         0.01
  4435-831.1                 23.23     23.23     25.43     35.02        21.55
  4435-833.1                  0.01      0.01      0.01     35.02         0.01
  4536-04.1                   0.01      0.01      0.01     35.02         0.01
  4335-08.1                   0.01      0.01      0.01     35.02         0.01
  4435-830.1                 21.90     24.64     21.90     35.02        21.90
  4435-05.1                  23.35     23.36     23.59     35.02         0.01
  F4435-05a.1                23.58     23.59     23.72     35.02         0.06
  4435-807.1                 18.55     18.55     24.95     35.02         0.01
  4435-808a.1                23.71     23.72     23.88     35.02         0.02
  4435-808.1                 22.44     22.44     28.50     35.02         0.01
  4435-506.1                 20.51     20.51     22.44     35.02         0.01
  4335-807.1                  0.01      0.01     16.93     35.02         0.01
  4335-807a.1                 0.01      0.01      0.01     35.02         0.01
  4335-821.1                 28.30     28.30     28.41     35.02         0.01
  F4335-825b.1               28.36     28.36     28.50     35.02         0.01
  F4335-825a.1               28.50     28.50     29.02     35.02         0.01
  4335-825.1                 28.64     28.75     28.65     35.02         0.01
  4434-34.1                   0.01      0.01      0.01     35.02         0.01
  4335-14.1                   0.01      0.01      0.01     35.02         0.01
  4435-810.1                 24.15     24.15     24.64     35.02         0.01
  4435-502.1                  0.01      0.01     28.85     35.02         0.01
  4335-09.2                   0.01      0.01      0.01     35.02         0.01
  4535-F551.1                 0.01      0.01      0.01     35.02         0.01
  4535-513.1                  0.01      0.01      0.01     35.02         0.01
  4535-512.1                  0.01      0.01      0.01     35.02         0.01
  4535-511.1                  0.01      0.01      0.01     35.02         0.01
  4435-508.1                  0.01      2.82      0.01     35.02         0.01
  4435-507.1                  0.01      0.01      0.01     35.02         0.01
  4435-507.2                  0.01      0.01      0.01     35.02         0.01
  4435-509.1                  0.01      0.01      0.75     35.02         0.01
  4435-815.1                  5.52      5.52      5.86     35.02         0.01
  4435-817.1                  0.75      0.75      2.81     35.02         0.01
  4435-818.1                  2.75      2.99      2.75     35.02         2.75
  4435-819.1                  0.01      0.01      0.01     35.02         0.01
  4435-823.1                  0.46      0.46     14.58     35.02         0.01
  4535-817.1                  2.07      2.07      4.75     35.02         0.01
  4535-818.1                  1.90      1.90      2.86     35.02         0.01
  4535-819.1                  2.86      2.86      6.98     35.02         0.01
  4535-820.1                  0.01      0.01      0.01     35.02         0.01
  4535-821.1                  0.01      0.01      0.01     35.02         0.01
  4535-822.1                  0.01      0.01     14.58     35.02         0.01
  4535-823.1                  0.01      0.01      0.01     35.02         0.01
  F4435-816a.1                2.99      2.99      5.52     35.02         0.01
  4435-816.1                  2.81      2.81     12.22     35.02         0.01
  4535-514.1                  0.01      0.01      0.01     35.02         0.01
  4235-810.1                  0.01      0.01      0.01     35.02         0.01
  4235-811.1                  0.01      0.01      0.01     35.02         0.01
  4335-835.1                  0.01      0.01      0.01     35.02         0.01
  4335-504.1                  0.01      0.01      0.01     35.02         0.01
  4335-506.1                  0.01      0.01      0.01     35.02         0.01
  4335-507.1                  0.01      0.01      0.01     35.02         0.01
  4335-508.1                  0.01      0.01      0.01     35.02         0.01
  4435-820.1                  0.01      0.01      0.01     35.02         0.01
  4435-822.1                  0.01      0.01      0.01     35.02         0.01
  4335-824.1                 28.38     28.38     28.41     35.02         0.01
  05640601.2                 28.41     28.41     29.01     35.02         7.73
  05640604.1                  0.01      0.01      0.01     35.02         0.01
  4435-821.1                  0.01      0.01      0.01     35.02         0.01
  4435-824.1                  0.01      0.01      0.01     35.02         0.01
  4435-827.1                  0.01      0.01      0.01     35.02         0.01
  4435-826.1                  0.01      0.01      1.79     35.02         0.01
  4435-825.1                  0.01      0.36      0.46     35.02         0.01
  05647801.1                 21.85     21.90     21.91     35.02        21.85
  4435-832.1                  0.01      0.01      0.01     35.02         0.01
  4335-505.1                  0.01      0.01      0.01     35.02         0.01
  04649701.1                  0.01      0.01      1.30     35.02         0.01
  04649601.1                  1.29      1.29     28.42     35.02         0.01
  04649602.1                 28.42     28.42     28.95     35.02         0.01
  05640605.1                 28.95     28.95     30.91     35.02         0.01
  4335-802.2                  0.01      0.01     28.33     35.02         0.01
  
  
  ***************
  Pumping Summary
  ***************
  
  ---------------------------------------------------------------------------------------------------------
                                                  Min       Avg       Max     Total     Power    % Time Off
                        Percent   Number of      Flow      Flow      Flow    Volume     Usage    Pump Curve
  Pump                 Utilized   Start-Ups       CMS       CMS       CMS  10^6 ltr     Kw-hr    Low   High
  ---------------------------------------------------------------------------------------------------------
  PUMP1@POND3-MH05640604    87.77           1      0.00      0.03      0.03     3.319     19.86    0.0  100.0
  PUMP2@POND3-MH05640604    87.26           1      0.00      0.03      0.03     3.300     19.68    0.0  100.0
  PUMP3@POND3-MH05640604    85.73           1      0.00      0.03      0.03     3.242     19.20    0.0  100.0
  PUMP4@POND3-MH05640604    82.55           3      0.00      0.03      0.03     3.117     18.23    0.0   99.4
  PUMP5@F4335-825a-4335-823    82.10         208      0.00     12.00     12.00  1241.809    238.37    0.0  100.0
  

  Analysis begun on:  Sat Jan  6 05:11:06 2024
  Analysis ended on:  Sat Jan  6 05:11:36 2024
  Total elapsed time: 00:00:30