
  EPA STORM WATER MANAGEMENT MODEL - VERSION 5.2 (Build 5.2.2)
  ------------------------------------------------------------

  ﻿[TITLE] 
  Zhonggang	drainage	system							 
  5yr24hr.	design	typhoon	rainfall						 
  WARNING 04: minimum elevation drop used for Conduit 4335-10.1
  WARNING 04: minimum elevation drop used for Conduit 4435-818.1
  WARNING 04: minimum elevation drop used for Conduit 4435-822.1
  WARNING 04: minimum elevation drop used for Conduit 5640601.2
  WARNING 04: minimum elevation drop used for Conduit 5640604.1
  
  *************
  Element Count
  *************
  Number of rain gages ...... 1
  Number of subcatchments ... 94
  Number of nodes ........... 133
  Number of links ........... 137
  Number of pollutants ...... 0
  Number of land uses ....... 0
  
  
  ****************
  Raingage Summary
  ****************
                                                      Data       Recording
  Name                 Data Source                    Type       Interval 
  ------------------------------------------------------------------------
  GAGE1                Typhoon_LONGWANG               INTENSITY   60 min.
  
  
  ********************
  Subcatchment Summary
  ********************
  Name                       Area     Width   %Imperv    %Slope Rain Gage            Outlet              
  -----------------------------------------------------------------------------------------------------------
  1                          2.79    218.00     90.00    2.6000 GAGE1                4335-826            
  2                          0.27     68.00     90.00   31.8000 GAGE1                4335-824            
  3                          0.32     73.00     90.00    0.1000 GAGE1                4335-823            
  4                          1.70    170.00     90.00    0.1000 GAGE1                4335-829            
  5                          0.55     97.00     90.00    0.8000 GAGE1                4335-821            
  6                          0.44     87.00     90.00    0.8000 GAGE1                4335-820            
  7                          0.25     66.00     90.00    0.4000 GAGE1                4335-819            
  8                          0.28     69.00     90.00    0.7000 GAGE1                4335-818            
  9                          0.42     85.00     80.00    0.5000 GAGE1                4335-817            
  10                         0.84    119.00     90.00    1.7000 GAGE1                Dec-35              
  13                         4.56    279.00     60.00    0.2000 GAGE1                4335-811            
  14                         0.47     89.00     90.00    0.6000 GAGE1                4335-830            
  15                        19.80    580.00     50.00    0.4000 GAGE1                4335-831            
  16                         0.63    104.00     80.00    0.7000 GAGE1                4335-828            
  17                         3.19    233.00     30.00   23.7000 GAGE1                Sep-35              
  18                         1.35    152.00     50.00    0.4000 GAGE1                Jul-35              
  19                         1.39    154.00     50.00    0.1000 GAGE1                Jun-35              
  22                         2.26    196.00     50.00    0.2000 GAGE1                Mar-35              
  23                         1.61    165.00     50.00    0.1000 GAGE1                4335-13             
  24                         4.90    289.00     90.00    0.3000 GAGE1                4435-833            
  25                         1.21    144.00     90.00    0.5000 GAGE1                4335-808            
  26                         0.26     66.00     90.00    1.1000 GAGE1                4335-807a           
  27                         0.25     65.00     80.00    1.0000 GAGE1                Aug-35              
  28                         0.38     80.00     90.00    2.0000 GAGE1                4335-806            
  29                         0.44     86.00     90.00    0.7000 GAGE1                4335-805            
  30                         2.25    196.00     90.00    0.3000 GAGE1                4335-804            
  31                         0.64    105.00     90.00    0.6000 GAGE1                Feb-35              
  32                         0.95    127.00     90.00    1.3000 GAGE1                4335-803            
  33                         1.09    136.00     90.00    1.2000 GAGE1                4335-801            
  34                         1.07    135.00     70.00    2.1000 GAGE1                4435-501            
  35                         0.50     92.00     90.00    2.9000 GAGE1                4435-510            
  36                         0.47     90.00     90.00    4.9000 GAGE1                4435-502            
  38                         1.77    173.00     90.00    0.7000 GAGE1                4334-809            
  39                         0.40     82.00     90.00    1.2000 GAGE1                4335-816            
  40                         0.09     38.00     80.00    3.3000 GAGE1                4335-815            
  41                         0.28     68.00     90.00    2.2000 GAGE1                4335-812            
  42                         0.16     52.00     90.00    4.4000 GAGE1                4335-813            
  43                         0.11     44.00     90.00    2.7000 GAGE1                4335-814            
  44                         1.08    135.00     90.00    0.8000 GAGE1                4434-33             
  45                         0.23     63.00     90.00    1.8000 GAGE1                4434-34             
  46                         0.37     79.00     90.00    0.8000 GAGE1                4434-32             
  47                         1.56    163.00     90.00    1.2000 GAGE1                4434-31             
  49                         5.79    314.00     90.00    0.1000 GAGE1                4435-831            
  50                         4.01    261.00     90.00    0.1000 GAGE1                4435-810            
  51                         1.29    148.00     90.00    0.4000 GAGE1                4435-830            
  52                         2.11    189.00     80.00    1.2000 GAGE1                Mar-35              
  53                         1.65    168.00     90.00    0.9000 GAGE1                Apr-35              
  54                         1.97    183.00     90.00    0.4000 GAGE1                4435-829            
  55                         1.22    144.00     90.00    0.4000 GAGE1                May-35              
  56                         1.07    135.00     90.00    5.8000 GAGE1                4435-808            
  57                         0.32     74.00     90.00    2.1000 GAGE1                4435-807            
  58                         0.24     64.00     90.00    3.0000 GAGE1                4435-806            
  59                         0.17     54.00     30.00    1.4000 GAGE1                4435-811            
  60                         0.43     85.00     30.00    3.5000 GAGE1                4435-812            
  61                         8.61    383.00     80.00    0.2000 GAGE1                4435-814            
  62                         0.21     59.00     90.00    0.6000 GAGE1                4435-504            
  63                         1.86    178.00     90.00    0.2000 GAGE1                4435-503            
  64                         0.35     77.00     90.00    0.3000 GAGE1                4435-505            
  65                         0.12     46.00     90.00    2.4000 GAGE1                4435-805            
  66                         0.16     52.00     90.00    2.6000 GAGE1                4435-804            
  67                         0.13     47.00     90.00    0.7000 GAGE1                4435-803            
  68                         1.45    157.00     90.00    0.1000 GAGE1                4435-801            
  69                        14.52    497.00     30.00    0.1000 GAGE1                Apr-36              
  70                         3.32    237.00     30.00    0.3000 GAGE1                Feb-36              
  71                         4.81    286.00     30.00    0.5000 GAGE1                Jan-36              
  107                        1.31    149.00     90.00    1.2000 GAGE1                4535-511            
  108                        0.59    100.00     90.00    0.9000 GAGE1                4535-512            
  109                        2.01    185.00     90.00    0.4000 GAGE1                4535-513            
  110                        6.37    329.00     90.00    0.5000 GAGE1                4535-514            
  111                        0.20     59.00     90.00    1.1000 GAGE1                4535-817            
  112                        0.33     75.00     90.00    0.7000 GAGE1                4535-818            
  113                        1.54    162.00     90.00    0.5000 GAGE1                4535-819            
  114                        3.39    240.00     90.00    1.2000 GAGE1                4535-821            
  115                        0.44     86.00     90.00    0.1000 GAGE1                4435-508            
  116                        0.25     65.00     90.00    0.6000 GAGE1                4435-817            
  117                        0.58     99.00     90.00    0.1000 GAGE1                4435-816            
  118                        0.22     61.00     90.00    0.2000 GAGE1                4435-815            
  119                        2.19    193.00     90.00    0.2000 GAGE1                4435-818            
  120                        0.24     64.00     90.00    0.6000 GAGE1                4435-507            
  121                        0.85    120.00     90.00    0.2000 GAGE1                4435-823            
  122                        0.91    124.00     30.00    0.1000 GAGE1                4435-824            
  123                        0.56     98.00     30.00    0.3000 GAGE1                4435-825            
  124                        2.49    206.00     30.00    0.1000 GAGE1                4435-826            
  125                        0.26     67.00     90.00    0.1000 GAGE1                4435-819            
  126                        0.18     55.00     90.00    0.2000 GAGE1                4435-820            
  127                        3.42    241.00     30.00    0.1000 GAGE1                4435-827            
  130                        0.91    124.00     90.00    0.2000 GAGE1                4235-810            
  131                        0.57     99.00     80.00    0.2000 GAGE1                4235-811            
  132                        0.32     74.00     80.00    0.1000 GAGE1                4335-835            
  133                        0.12     46.00     90.00    1.3000 GAGE1                4335-504            
  134                        1.79    174.00     90.00    0.6000 GAGE1                4335-505            
  135                        0.16     52.00     90.00    0.3000 GAGE1                4335-508            
  136                        0.11     44.00     90.00    0.2000 GAGE1                4335-507            
  187                        6.37     73.00     90.00    0.6000 GAGE1                POND3               
  
  
  ************
  Node Summary
  ************
                                           Invert      Max.    Ponded    External
  Name                 Type                 Elev.     Depth      Area    Inflow  
  -------------------------------------------------------------------------------
  4235-810             JUNCTION             13.88      1.76       0.0
  4235-811             JUNCTION             13.59      1.96       0.0
  4334-809             JUNCTION             13.37      1.61       0.0
  Jan-35               JUNCTION             12.54      3.55       0.0
  Feb-35               JUNCTION             12.40      3.30       0.0
  Mar-35               JUNCTION             12.29      3.07       0.0
  Apr-35               JUNCTION             12.24      3.22       0.0
  May-35               JUNCTION             12.32      2.94       0.0
  Jun-35               JUNCTION             12.02      2.95       0.0
  Jul-35               JUNCTION             12.11      2.78       0.0
  Aug-35               JUNCTION             11.88      2.82       0.0
  Sep-35               JUNCTION             12.50      3.18       0.0
  Oct-35               JUNCTION             11.90      2.10       0.0
  Nov-35               JUNCTION             11.90      2.46       0.0
  Dec-35               JUNCTION             11.10      3.03       0.0
  4335-13              JUNCTION             13.47      2.22       0.0
  4335-14              JUNCTION             13.00      2.70       0.0
  4335-504             JUNCTION             13.17      2.61       0.0
  4335-505             JUNCTION             13.00      3.03       0.0
  4335-506             JUNCTION             13.95      2.14       0.0
  4335-507             JUNCTION             13.95      2.12       0.0
  4335-508             JUNCTION             14.14      1.84       0.0
  4335-801             JUNCTION             11.94      2.99       0.0
  4335-802             JUNCTION             11.32      4.38       0.0
  4335-803             JUNCTION             12.42      3.69       0.0
  4335-804             JUNCTION             12.13      2.92       0.0
  4335-805             JUNCTION             11.82      2.94       0.0
  4335-806             JUNCTION             11.60      3.57       0.0
  4335-807             JUNCTION             12.60      2.21       0.0
  4335-807a            JUNCTION             12.50      2.31       0.0
  4335-808             JUNCTION             12.26      1.88       0.0
  4335-809             JUNCTION             11.27      2.61       0.0
  4335-811             JUNCTION             11.07      2.71       0.0
  4335-812             JUNCTION             13.79      1.56       0.0
  4335-813             JUNCTION             11.79      4.73       0.0
  4335-814             JUNCTION             12.84      4.73       0.0
  4335-815             JUNCTION             12.82      3.98       0.0
  4335-816             JUNCTION             12.49      2.54       0.0
  4335-817             JUNCTION             12.14      2.50       0.0
  4335-818             JUNCTION             11.79      2.56       0.0
  4335-819             JUNCTION             11.71      2.43       0.0
  4335-820             JUNCTION             11.54      2.43       0.0
  4335-821             JUNCTION             11.37      2.28       0.0
  4335-823             JUNCTION             11.42      2.99       0.0
  4335-824             JUNCTION             10.72      3.69       0.0
  4335-825             JUNCTION             10.96      2.74       0.0
  4335-826             JUNCTION             10.96      2.55       0.0
  4335-827             JUNCTION             12.32      3.22       0.0
  4335-828             JUNCTION             12.63      3.06       0.0
  4335-829             JUNCTION             12.49      3.17       0.0
  4335-830             JUNCTION             12.98      2.80       0.0
  4335-831             JUNCTION             13.36      2.44       0.0
  4335-835             JUNCTION             13.56      2.16       0.0
  4336-801             JUNCTION             14.06      1.56       0.0
  4434-31              JUNCTION             14.19      3.16       0.0
  4434-32              JUNCTION             14.08      2.45       0.0
  4434-33              JUNCTION             13.92      2.51       0.0
  4434-34              JUNCTION             13.82      2.12       0.0
  4435-03              JUNCTION             15.16      2.76       0.0
  4435-04              JUNCTION             14.91      2.22       0.0
  4435-05              JUNCTION             13.04      3.46       0.0
  4435-501             JUNCTION             17.32      2.15       0.0
  4435-502             JUNCTION             16.13      2.21       0.0
  4435-503             JUNCTION             14.65      1.85       0.0
  4435-504             JUNCTION             14.59      1.82       0.0
  4435-505             JUNCTION             14.47      1.79       0.0
  4435-506             JUNCTION             14.07      2.09       0.0
  4435-507             JUNCTION             14.85      2.22       0.0
  4435-508             JUNCTION             14.85      2.02       0.0
  4435-509             JUNCTION             14.89      1.92       0.0
  4435-510             JUNCTION             16.75      2.25       0.0
  4435-801             JUNCTION             17.11      4.46       0.0
  4435-802             JUNCTION             16.54      5.11       0.0
  4435-803             JUNCTION             16.22      5.53       0.0
  4435-804             JUNCTION             16.75      4.61       0.0
  4435-805             JUNCTION             16.17      3.90       0.0
  4435-806             JUNCTION             15.98      2.93       0.0
  4435-807             JUNCTION             13.76      2.94       0.0
  4435-808             JUNCTION             13.84      2.26       0.0
  4435-808a            JUNCTION             12.98      3.22       0.0
  4435-809             JUNCTION             12.95      2.42       0.0
  4435-810             JUNCTION             12.91      2.58       0.0
  4435-811             JUNCTION             13.62      2.64       0.0
  4435-812             JUNCTION             14.55      2.70       0.0
  4435-813             JUNCTION             14.37      3.17       0.0
  4435-814             JUNCTION             14.60      3.02       0.0
  4435-815             JUNCTION             14.21      2.56       0.0
  4435-816             JUNCTION             14.67      2.03       0.0
  4435-817             JUNCTION             14.86      1.93       0.0
  4435-818             JUNCTION             14.27      2.36       0.0
  4435-819             JUNCTION             14.27      2.32       0.0
  4435-820             JUNCTION             14.10      2.50       0.0
  4435-821             JUNCTION             14.01      2.69       0.0
  4435-822             JUNCTION             13.89      3.03       0.0
  4435-823             JUNCTION             13.63      2.83       0.0
  4435-824             JUNCTION             13.83      2.78       0.0
  4435-825             JUNCTION             14.08      2.36       0.0
  4435-826             JUNCTION             14.53      1.94       0.0
  4435-827             JUNCTION             14.56      1.93       0.0
  4435-829             JUNCTION             13.78      2.93       0.0
  4435-830             JUNCTION             12.85      2.63       0.0
  4435-831             JUNCTION             12.27      2.70       0.0
  4435-832             JUNCTION             13.74      1.88       0.0
  4435-833             JUNCTION             13.91      1.51       0.0
  4535-511             JUNCTION             17.50      2.02       0.0
  4535-512             JUNCTION             16.48      2.19       0.0
  4535-513             JUNCTION             16.28      1.86       0.0
  4535-514             JUNCTION             15.49      2.43       0.0
  4535-817             JUNCTION             14.83      3.03       0.0
  4535-818             JUNCTION             14.65      2.81       0.0
  4535-819             JUNCTION             14.54      2.36       0.0
  4535-820             JUNCTION             14.83      2.38       0.0
  4535-821             JUNCTION             14.82      2.43       0.0
  4535-822             JUNCTION             14.79      2.22       0.0
  4535-823             JUNCTION             14.83      2.27       0.0
  4535-F551            JUNCTION             15.81      2.19       0.0
  Jan-36               JUNCTION             18.49      2.03       0.0
  Feb-36               JUNCTION             17.52      3.56       0.0
  Mar-36               JUNCTION             17.60      3.62       0.0
  Apr-36               JUNCTION             17.13      4.37       0.0
  F4335-825a           JUNCTION             10.88      2.62       0.0
  F4335-825b           JUNCTION             11.22      2.78       0.0
  F4435-05a            JUNCTION             13.00      3.20       0.0
  F4435-816a           JUNCTION             14.24      2.46       0.0
  MH04649601           JUNCTION             12.44      4.39       0.0
  MH04649602           JUNCTION             12.09      4.85       0.0
  MH04649701           JUNCTION             12.74      3.49       0.0
  MH05640601           JUNCTION             10.72      5.28       0.0
  MH05640604           JUNCTION             14.70      2.15       0.0
  MH05640605           JUNCTION             11.70      5.50       0.0
  MH05647801           JUNCTION             12.81      2.39       0.0
  POND3                JUNCTION             10.25      6.60       0.0
  MH05640504           OUTFALL              14.70      1.52       0.0
  
  
  ************
  Link Summary
  ************
  Name             From Node        To Node          Type            Length    %Slope Roughness
  ---------------------------------------------------------------------------------------------
  4435-510.1       4435-510         4435-502         CONDUIT           23.0    2.5661    0.0150
  4435-505.1       4435-505         4435-506         CONDUIT           31.0    1.2904    0.0150
  4435-504.1       4435-504         4435-505         CONDUIT           26.0    0.6154    0.0150
  4435-503.1       4435-503         4435-504         CONDUIT           46.0    0.1304    0.0150
  4435-501.1       4435-501         4435-510         CONDUIT           22.0    2.5918    0.0150
  4335-03.1        Mar-35           Apr-35           CONDUIT           54.0    0.0926    0.0150
  4335-04.1        Apr-35           May-35           CONDUIT           35.0   -0.2286    0.0150
  4335-06.1        Jun-35           Jul-35           CONDUIT           56.0   -0.1607    0.0150
  4335-07.1        Jul-35           Aug-35           CONDUIT           52.0    0.4423    0.0150
  4335-10.1        Oct-35           Nov-35           CONDUIT          116.0    0.0003    0.0150
  4335-11.1        Nov-35           Dec-35           CONDUIT           36.0    1.2501    0.0150
  4335-13.1        4335-13          4335-14          CONDUIT           61.0    0.7705    0.0150
  4335-01.1        Jan-35           Feb-35           CONDUIT           76.0    0.1842    0.0150
  4434-31.1        4434-31          4434-32          CONDUIT           68.0    0.0882    0.0150
  4434-32.1        4434-32          4434-33          CONDUIT           12.0    1.3335    0.0150
  4434-33.1        4434-33          4434-34          CONDUIT           61.0    0.5246    0.0150
  4435-03.1        Mar-35           Apr-35           CONDUIT           64.0    0.0313    0.0150
  4435-04.1        Apr-35           May-35           CONDUIT           74.0   -0.7297    0.0150
  4536-01.1        Jan-36           Feb-36           CONDUIT          112.0    0.8661    0.0150
  4536-02.1        Feb-36           Mar-36           CONDUIT           52.0   -0.3269    0.0150
  4536-03.1        Mar-36           Apr-36           CONDUIT           80.0    0.5875    0.0150
  4334-809.1       4334-809         4335-812         CONDUIT           55.0   -0.7637    0.0150
  4335-09.1        Sep-35           4335-827         CONDUIT            9.0    1.1112    0.0150
  4335-12.1        Dec-35           4335-826         CONDUIT           36.0    0.2222    0.0150
  4335-801.1       4335-801         4335-802         CONDUIT           65.0    0.9539    0.3000
  4335-802.1       4335-802         4335-803         CONDUIT           87.0   -1.2645    0.0150
  4335-803.1       4335-803         4335-804         CONDUIT           81.0    0.3580    0.0150
  4335-804.1       4335-804         4335-805         CONDUIT          101.0    0.3069    0.0150
  4335-805.1       4335-805         4335-806         CONDUIT           61.0   -2.1480    0.0150
  4335-806.1       4335-806         4335-807a        CONDUIT           18.0    0.3889    0.0150
  4335-808.1       4335-808         4335-809         CONDUIT           54.0    1.8336    0.0150
  4335-809.1       4335-809         4335-811         CONDUIT           19.0    1.0527    0.0150
  4335-811.1       4335-811         4335-825         CONDUIT           46.0    0.2391    0.0150
  4335-812.1       4335-812         4335-813         CONDUIT           54.0    3.7062    0.0150
  4335-813.1       4335-813         4335-814         CONDUIT           24.0   -4.3792    0.0150
  4335-814.1       4335-814         4335-815         CONDUIT           29.0    0.0690    0.0150
  4335-815.1       4335-815         4335-816         CONDUIT           54.0    0.6111    0.0150
  4335-816.1       4335-816         4335-817         CONDUIT           32.0    1.0938    0.0150
  4335-817.1       4335-817         4335-818         CONDUIT           55.0    0.6364    0.0150
  4335-818.1       4335-818         4335-819         CONDUIT           32.0    0.2500    0.0150
  4335-819.1       4335-819         4335-820         CONDUIT           42.0    0.4048    0.0150
  4335-820.1       4335-820         4335-821         CONDUIT           39.0    0.4359    0.0150
  4335-823.1       4335-823         4335-824         CONDUIT           59.0    1.1865    0.0150
  4335-826.1       4335-826         F4335-825a       CONDUIT            7.0    1.1429    0.0150
  4335-827.1       4335-827         4335-806         CONDUIT           36.0   -2.5286    0.0150
  4335-828.1       4335-828         4335-827         CONDUIT           22.0    1.3183    0.0150
  4335-829.1       4335-829         4335-828         CONDUIT           54.0   -0.3148    0.0150
  4335-830.1       4335-830         4335-829         CONDUIT           19.0    2.4744    0.0150
  4335-831.1       4335-831         4335-830         CONDUIT            5.0    4.8055    0.0150
  4336-801.1       4336-801         4435-833         CONDUIT           62.0    0.2419    0.0150
  4435-801.1       4435-801         4435-802         CONDUIT           71.0    1.2114    0.0150
  4435-802.1       4435-802         4435-803         CONDUIT           53.0    0.6038    0.0150
  4435-803.1       4435-803         4435-804         CONDUIT           58.0    0.0172    0.0150
  4435-804.1       4435-804         4435-805         CONDUIT           50.0    1.0401    0.0150
  4435-805.1       4435-805         4435-806         CONDUIT           48.0    0.1250    0.0150
  4435-806.1       4435-806         4435-807         CONDUIT           73.0    3.0425    0.0150
  4435-809.1       4435-809         4435-810         CONDUIT           74.0    0.0541    0.0015
  4435-811.1       4435-811         4435-810         CONDUIT           54.0    0.0185    0.0150
  4435-812.1       4435-812         4435-811         CONDUIT           28.0    3.3233    0.0150
  4435-813.1       4435-813         4435-812         CONDUIT           68.0   -0.2647    0.0150
  4435-814.1       4435-814         4435-813         CONDUIT           46.0    0.5000    0.0150
  4435-829.1       4435-829         May-35           CONDUIT           56.0    1.2322    0.0150
  4435-831.1       4435-831         4335-801         CONDUIT           60.0    0.5500    0.3000
  4435-833.1       4435-833         4435-832         CONDUIT           62.0    0.2742    0.0150
  4536-04.1        Apr-36           4435-801         CONDUIT           73.0    0.4110    0.0150
  4335-08.1        Aug-35           4335-806         CONDUIT           48.0    0.5833    0.0150
  4435-830.1       4435-830         MH05647801       CONDUIT           64.0    0.0625    0.3000
  4435-05.1        May-35           F4435-05a        CONDUIT           74.0   -0.9190    0.0015
  F4435-05a.1      F4435-05a        4435-808a        CONDUIT           23.0    0.0870    0.0015
  4435-807.1       4435-807         F4435-05a        CONDUIT           24.0    2.1672    0.0150
  4435-808a.1      4435-808a        4435-809         CONDUIT           58.0    0.0517    0.0015
  4435-808.1       4435-808         4435-808a        CONDUIT            2.0    2.0004    0.0150
  4435-506.1       4435-506         4435-808         CONDUIT           11.0    2.0914    0.0150
  4335-807.1       4335-807         4335-807a        CONDUIT            8.0    1.2501    0.0150
  4335-807a.1      4335-807a        4335-808         CONDUIT           62.0    0.3871    0.0150
  4335-821.1       4335-821         F4335-825b       CONDUIT           45.0    0.3333    0.0150
  F4335-825b.1     F4335-825b       4335-823         CONDUIT           13.0   -1.5386    0.0150
  F4335-825a.1     F4335-825a       F4335-825b       CONDUIT           11.0   -1.4547    0.0150
  4335-825.1       4335-825         F4335-825a       CONDUIT           10.0   -1.0001    0.0150
  4434-34.1        4434-34          4334-809         CONDUIT           54.0    0.8334    0.0150
  4335-14.1        4335-14          Feb-35           CONDUIT           13.0    1.5386    0.0150
  4435-810.1       4435-810         4435-830         CONDUIT           99.0    0.0606    0.0150
  4435-502.1       4435-502         4335-801         CONDUIT           70.0    5.9965    0.0150
  4335-09.2        Sep-35           Oct-35           CONDUIT            7.0    8.6031    0.0150
  4535-F551.1      4535-F551        4535-514         CONDUIT           23.0    1.3914    0.0150
  4535-513.1       4535-513         4535-F551        CONDUIT           33.0    1.4244    0.0150
  4535-512.1       4535-512         4535-513         CONDUIT           60.0    0.2667    0.0150
  4535-511.1       4535-511         4535-512         CONDUIT           68.0    1.3972    0.0150
  4435-508.1       4435-508         4435-509         CONDUIT           43.0   -0.9070    0.3000
  4435-507.1       4435-507         4535-823         CONDUIT           38.0    0.0526    0.0150
  4435-507.2       4435-507         4435-508         CONDUIT           36.0    1.4446    0.3000
  4435-509.1       4435-509         4435-817         CONDUIT           31.0    0.0968    0.3000
  4435-815.1       4435-815         F4435-816a       CONDUIT           43.0   -0.0698    0.3000
  4435-817.1       4435-817         4435-816         CONDUIT           15.0    1.2668    0.3000
  4435-818.1       4435-818         4435-819         CONDUIT           17.0    0.0018    0.3000
  4435-819.1       4435-819         4435-820         CONDUIT           49.0    0.3469    0.3000
  4435-823.1       4435-823         4435-824         CONDUIT           63.0   -0.3175    0.0150
  4535-817.1       4535-817         4535-818         CONDUIT           35.0    0.5143    0.3000
  4535-818.1       4535-818         4535-819         CONDUIT           84.0    0.1310    0.3000
  4535-819.1       4535-819         4435-815         CONDUIT           24.0    1.3751    0.3000
  4535-820.1       4535-820         4535-821         CONDUIT           14.0    0.0714    0.0150
  4535-821.1       4535-821         4535-822         CONDUIT           20.0    0.1500    0.0150
  4535-822.1       4535-822         4435-823         CONDUIT          124.0    0.9355    0.0150
  4535-823.1       4535-823         4535-822         CONDUIT           17.0    0.2353    0.0150
  F4435-816a.1     F4435-816a       4435-818         CONDUIT           58.0   -0.0517    0.3000
  4435-816.1       4435-816         F4435-816a       CONDUIT            4.0    4.2538    0.3000
  4535-514.1       4535-514         4535-820         CONDUIT          134.0    0.4925    0.0150
  4235-810.1       4235-810         4235-811         CONDUIT           46.0    0.6304    0.0150
  4235-811.1       4235-811         4335-835         CONDUIT           97.0    0.0309    0.0150
  4335-835.1       4335-835         4335-504         CONDUIT           87.0    0.4598    0.0150
  4335-504.1       4335-504         4335-505         CONDUIT           19.0    0.8948    0.0150
  4335-506.1       4335-506         4335-505         CONDUIT           34.0    1.3236    0.0150
  4335-507.1       4335-507         4335-506         CONDUIT            9.0   -1.2223    0.0150
  4335-508.1       4335-508         4335-507         CONDUIT           31.0    0.2258    0.0150
  4435-820.1       4435-820         4435-821         CONDUIT           54.0    0.1667    0.3000
  4435-822.1       4435-822         4435-829         CONDUIT           68.0    0.0004    0.0150
  4335-824.1       4335-824         MH05640601       CONDUIT            5.0  -13.5219    0.0150
  5640601.2        MH05640601       POND3            CONDUIT            5.0    0.0061    0.0150
  5640604.1        MH05640604       MH05640504       CONDUIT           25.0    0.0012    0.0030
  4435-821.1       4435-821         4435-822         CONDUIT           40.0    0.3000    0.3000
  4435-824.1       4435-824         4435-829         CONDUIT           99.0    0.0505    0.0150
  4435-827.1       4435-827         4435-826         CONDUIT           55.0    0.0545    0.0015
  4435-826.1       4435-826         4435-825         CONDUIT           48.0    0.9375    0.0015
  4435-825.1       4435-825         4435-824         CONDUIT           68.0    0.3676    0.0015
  5647801.1        MH05647801       4435-831         CONDUIT           57.0    0.0526    0.3000
  4435-832.1       4435-832         4335-13          CONDUIT          127.0    0.2126    0.0150
  4335-505.1       4335-505         MH04649701       CONDUIT           32.0    0.8125    0.0150
  4649701.1        MH04649701       MH04649601       CONDUIT           38.0    0.7895    0.0150
  4649601.1        MH04649601       MH04649602       CONDUIT           45.0    0.7778    0.0150
  4649602.1        MH04649602       MH05640605       CONDUIT           49.0    0.7959    0.0150
  5640605.1        MH05640605       MH05640601       CONDUIT           39.0    0.7949    0.0150
  4335-802.2       4335-802         Jan-35           CONDUIT           37.0   -3.2991    0.0150
  PUMP1@POND3-MH05640604 POND3            MH05640604       TYPE3 PUMP  
  PUMP2@POND3-MH05640604 POND3            MH05640604       TYPE3 PUMP  
  PUMP3@POND3-MH05640604 POND3            MH05640604       TYPE3 PUMP  
  PUMP4@POND3-MH05640604 POND3            MH05640604       TYPE3 PUMP  
  PUMP5@F4335-825a-4335-823 F4335-825a       4335-823         TYPE3 PUMP  
  
  
  *********************
  Cross Section Summary
  *********************
                                        Full     Full     Hyd.     Max.   No. of     Full
  Conduit          Shape               Depth     Area     Rad.    Width  Barrels     Flow
  ---------------------------------------------------------------------------------------
  4435-510.1       CIRCULAR             1.00     0.79     0.25     1.00        1     3.33
  4435-505.1       CIRCULAR             1.00     0.79     0.25     1.00        1     2.36
  4435-504.1       CIRCULAR             1.00     0.79     0.25     1.00        1     1.63
  4435-503.1       CIRCULAR             1.00     0.79     0.25     1.00        1     0.75
  4435-501.1       CIRCULAR             1.00     0.79     0.25     1.00        1     3.35
  4335-03.1        RECT_CLOSED          2.09     9.84     0.72     4.71        1    16.10
  4335-04.1        RECT_CLOSED          2.08     9.80     0.72     4.71        1    25.12
  4335-06.1        RECT_CLOSED          2.16    10.15     0.74     4.70        1    22.20
  4335-07.1        RECT_CLOSED          2.12    10.13     0.73     4.78        1    36.58
  4335-10.1        RECT_CLOSED          2.00     4.56     0.53     2.28        1     0.32
  4335-11.1        RECT_CLOSED          1.98     6.24     0.61     3.15        1    33.37
  4335-13.1        RECT_CLOSED          1.23     2.25     0.37     1.83        1     6.76
  4335-01.1        RECT_CLOSED          2.07     8.67     0.69     4.19        1    19.43
  4434-31.1        CIRCULAR             1.20     1.13     0.30     1.20        1     1.00
  4434-32.1        CIRCULAR             1.20     1.13     0.30     1.20        1     3.90
  4434-33.1        CIRCULAR             1.20     1.13     0.30     1.20        1     2.45
  4435-03.1        CIRCULAR             1.50     1.77     0.38     1.50        1     1.08
  4435-04.1        RECT_CLOSED          1.87     5.67     0.58     3.03        1    22.40
  4536-01.1        CIRCULAR             1.20     1.13     0.30     1.20        1     3.15
  4536-02.1        CIRCULAR             1.20     1.13     0.30     1.20        1     1.93
  4536-03.1        CIRCULAR             1.50     1.77     0.38     1.50        1     4.70
  4334-809.1       RECT_CLOSED          1.30     3.25     0.43     2.50        1    10.75
  4335-09.1        CIRCULAR             1.35     1.43     0.34     1.35        1     4.88
  4335-12.1        RECT_CLOSED          2.00     5.00     0.56     2.50        1    10.62
  4335-801.1       RECT_CLOSED          1.70     9.35     0.65     5.50        1     2.28
  4335-802.1       RECT_CLOSED          1.70    10.71     0.67     6.30        1    61.45
  4335-803.1       RECT_CLOSED          1.70    10.71     0.67     6.30        1    32.70
  4335-804.1       RECT_CLOSED          1.70    10.88     0.67     6.40        1    30.82
  4335-805.1       RECT_CLOSED          1.65    10.48     0.65     6.35        1    77.21
  4335-806.1       RECT_CLOSED          1.65     8.58     0.63     5.20        1    26.12
  4335-808.1       RECT_CLOSED          1.65     8.58     0.63     5.20        1    56.71
  4335-809.1       RECT_CLOSED          2.00     6.80     0.63     3.40        1    34.17
  4335-811.1       RECT_CLOSED          2.10     6.30     0.62     3.00        1    14.90
  4335-812.1       RECT_CLOSED          1.50     3.60     0.46     2.40        1    27.60
  4335-813.1       RECT_CLOSED          1.50     3.90     0.48     2.60        1    33.16
  4335-814.1       RECT_CLOSED          1.50     4.05     0.48     2.70        1     4.36
  4335-815.1       RECT_CLOSED          1.50     4.05     0.48     2.70        1    12.98
  4335-816.1       RECT_CLOSED          2.00     6.00     0.60     3.00        1    29.76
  4335-817.1       RECT_CLOSED          2.00     6.20     0.61     3.10        1    23.66
  4335-818.1       RECT_CLOSED          2.00     6.20     0.61     3.10        1    14.83
  4335-819.1       RECT_CLOSED          2.00     6.20     0.61     3.10        1    18.87
  4335-820.1       RECT_CLOSED          2.10     9.45     0.72     4.50        1    33.29
  4335-823.1       RECT_CLOSED          2.60    11.44     0.82     4.40        1    72.62
  4335-826.1       RECT_CLOSED          2.00     5.00     0.56     2.50        1    24.09
  4335-827.1       CIRCULAR             1.35     1.43     0.34     1.35        1     7.36
  4335-828.1       CIRCULAR             1.35     1.43     0.34     1.35        1     5.31
  4335-829.1       CIRCULAR             1.35     1.43     0.34     1.35        1     2.60
  4335-830.1       CIRCULAR             1.35     1.43     0.34     1.35        1     7.28
  4335-831.1       CIRCULAR             1.35     1.43     0.34     1.35        1    10.14
  4336-801.1       RECT_CLOSED          1.10     1.76     0.33     1.60        1     2.73
  4435-801.1       CIRCULAR             1.50     1.77     0.38     1.50        1     6.74
  4435-802.1       CIRCULAR             1.50     1.77     0.38     1.50        1     4.76
  4435-803.1       CIRCULAR             1.50     1.77     0.38     1.50        1     0.80
  4435-804.1       CIRCULAR             1.50     1.77     0.38     1.50        1     6.25
  4435-805.1       CIRCULAR             1.50     1.77     0.38     1.50        1     2.17
  4435-806.1       CIRCULAR             1.50     1.77     0.38     1.50        1    10.69
  4435-809.1       RECT_CLOSED          1.70     6.46     0.59     3.80        1    70.23
  4435-811.1       RECT_CLOSED          1.40     4.20     0.48     3.00        1     2.33
  4435-812.1       RECT_CLOSED          1.50     4.50     0.50     3.00        1    34.46
  4435-813.1       RECT_CLOSED          1.50     4.50     0.50     3.00        1     9.72
  4435-814.1       RECT_CLOSED          1.50     4.50     0.50     3.00        1    13.37
  4435-829.1       CIRCULAR             1.70     2.27     0.42     1.70        1     9.50
  4435-831.1       RECT_CLOSED          1.70     7.48     0.61     4.40        1     1.33
  4435-833.1       RECT_CLOSED          1.10     1.76     0.33     1.60        1     2.91
  4536-04.1        CIRCULAR             1.50     1.77     0.38     1.50        1     3.93
  4335-08.1        RECT_CLOSED          2.12    10.13     0.73     4.78        1    42.00
  4435-830.1       RECT_CLOSED          1.70     6.46     0.59     3.80        1     0.38
  4435-05.1        RECT_CLOSED          1.70     6.46     0.59     3.80        1   289.57
  F4435-05a.1      RECT_CLOSED          1.70     6.46     0.59     3.80        1    89.08
  4435-807.1       CIRCULAR             1.50     1.77     0.38     1.50        1     9.02
  4435-808a.1      RECT_CLOSED          1.70     6.46     0.59     3.80        1    68.70
  4435-808.1       CIRCULAR             1.00     0.79     0.25     1.00        1     2.94
  4435-506.1       CIRCULAR             1.00     0.79     0.25     1.00        1     3.01
  4335-807.1       CIRCULAR             1.00     0.79     0.25     1.00        1     2.32
  4335-807a.1      RECT_CLOSED          1.65     8.58     0.63     5.20        1    26.05
  4335-821.1       RECT_CLOSED          2.10     9.45     0.72     4.50        1    29.11
  F4335-825b.1     RECT_CLOSED          2.00     5.00     0.56     2.50        1    27.95
  F4335-825a.1     RECT_CLOSED          2.00     5.00     0.56     2.50        1    27.17
  4335-825.1       RECT_CLOSED          2.10     6.30     0.62     3.00        1    30.47
  4434-34.1        CIRCULAR             1.20     1.13     0.30     1.20        1     3.09
  4335-14.1        RECT_CLOSED          1.23     2.25     0.37     1.83        1     9.56
  4435-810.1       RECT_CLOSED          1.70     6.46     0.59     3.80        1     7.44
  4435-502.1       CIRCULAR             1.00     0.79     0.25     1.00        1     5.09
  4335-09.2        RECT_CLOSED          2.00     4.56     0.53     2.28        1    58.60
  4535-F551.1      CIRCULAR             1.30     1.33     0.33     1.30        1     4.93
  4535-513.1       CIRCULAR             1.30     1.33     0.33     1.30        1     4.99
  4535-512.1       CIRCULAR             1.00     0.79     0.25     1.00        1     1.07
  4535-511.1       CIRCULAR             1.00     0.79     0.25     1.00        1     2.46
  4435-508.1       CIRCULAR             0.90     0.64     0.23     0.90        1     0.07
  4435-507.1       CIRCULAR             1.30     1.33     0.33     1.30        1     0.96
  4435-507.2       CIRCULAR             1.30     1.33     0.33     1.30        1     0.25
  4435-509.1       CIRCULAR             1.20     1.13     0.30     1.20        1     0.05
  4435-815.1       CIRCULAR             1.50     1.77     0.38     1.50        1     0.08
  4435-817.1       CIRCULAR             1.20     1.13     0.30     1.20        1     0.19
  4435-818.1       CIRCULAR             1.50     1.77     0.38     1.50        1     0.01
  4435-819.1       CIRCULAR             1.70     2.27     0.42     1.70        1     0.25
  4435-823.1       CIRCULAR             1.70     2.27     0.42     1.70        1     4.82
  4535-817.1       CIRCULAR             1.20     1.13     0.30     1.20        1     0.12
  4535-818.1       CIRCULAR             1.40     1.54     0.35     1.40        1     0.09
  4535-819.1       CIRCULAR             1.40     1.54     0.35     1.40        1     0.30
  4535-820.1       CIRCULAR             1.40     1.54     0.35     1.40        1     1.36
  4535-821.1       CIRCULAR             1.40     1.54     0.35     1.40        1     1.97
  4535-822.1       CIRCULAR             1.70     2.27     0.42     1.70        1     8.27
  4535-823.1       CIRCULAR             1.30     1.33     0.33     1.30        1     2.03
  F4435-816a.1     CIRCULAR             1.50     1.77     0.38     1.50        1     0.07
  4435-816.1       CIRCULAR             1.20     1.13     0.30     1.20        1     0.35
  4535-514.1       CIRCULAR             1.30     1.33     0.33     1.30        1     2.94
  4235-810.1       CIRCULAR             1.20     1.13     0.30     1.20        1     2.68
  4235-811.1       CIRCULAR             1.20     1.13     0.30     1.20        1     0.59
  4335-835.1       CIRCULAR             1.20     1.13     0.30     1.20        1     2.29
  4335-504.1       CIRCULAR             1.20     1.13     0.30     1.20        1     3.20
  4335-506.1       CIRCULAR             1.00     0.79     0.25     1.00        1     2.39
  4335-507.1       CIRCULAR             1.00     0.79     0.25     1.00        1     2.30
  4335-508.1       CIRCULAR             1.00     0.79     0.25     1.00        1     0.99
  4435-820.1       CIRCULAR             1.70     2.27     0.42     1.70        1     0.17
  4435-822.1       CIRCULAR             1.70     2.27     0.42 