
  EPA STORM WATER MANAGEMENT MODEL - VERSION 5.2 (Build 5.2.2)
  ------------------------------------------------------------

  titleName 
  Huishui	Co. 
  WARNING 03: negative offset ignored for Link 4148-10-11
  WARNING 03: negative offset ignored for Link 4148-10-11
  WARNING 03: negative offset ignored for Link 4148-05-06
  WARNING 03: negative offset ignored for Link 4148-05-06
  WARNING 03: negative offset ignored for Link 4148-04-05
  WARNING 03: negative offset ignored for Link 4148-04-05
  WARNING 03: negative offset ignored for Link 4148-24-25
  WARNING 03: negative offset ignored for Link 4148-24-25
  WARNING 03: negative offset ignored for Link 4148-51-52
  WARNING 03: negative offset ignored for Link 4148-51-52
  WARNING 03: negative offset ignored for Link 4148-44-46
  WARNING 03: negative offset ignored for Link 4148-44-46
  WARNING 03: negative offset ignored for Link 4148-40-43
  WARNING 03: negative offset ignored for Link 4148-40-43
  WARNING 03: negative offset ignored for Link 4149-73-74
  WARNING 03: negative offset ignored for Link 4149-73-74
  WARNING 03: negative offset ignored for Link 4148-59-60
  WARNING 03: negative offset ignored for Link 4148-59-60
  WARNING 03: negative offset ignored for Link 4148-55-56
  WARNING 03: negative offset ignored for Link 4148-55-56
  WARNING 03: negative offset ignored for Link 4148-53-55
  WARNING 03: negative offset ignored for Link 4148-53-55
  WARNING 03: negative offset ignored for Link 4148-53-47
  WARNING 03: negative offset ignored for Link 4148-53-47
  WARNING 03: negative offset ignored for Link 4148-20-21
  WARNING 03: negative offset ignored for Link 4148-20-21
  WARNING 03: negative offset ignored for Link 4148-19-20
  WARNING 03: negative offset ignored for Link 4148-19-20
  WARNING 03: negative offset ignored for Link 4148-18-19
  WARNING 03: negative offset ignored for Link 4148-18-19
  WARNING 03: negative offset ignored for Link 4148-17-18
  WARNING 03: negative offset ignored for Link 4148-17-18
  WARNING 03: negative offset ignored for Link 4148-231-24
  WARNING 03: negative offset ignored for Link 4148-231-24
  WARNING 03: negative offset ignored for Link 4148-23-231
  WARNING 03: negative offset ignored for Link 4148-23-231
  WARNING 03: negative offset ignored for Link 4148-22-23
  WARNING 03: negative offset ignored for Link 4148-22-23
  WARNING 03: negative offset ignored for Link 4148-21-22
  WARNING 03: negative offset ignored for Link 4148-21-22
  WARNING 03: negative offset ignored for Link 4149-47-48
  WARNING 03: negative offset ignored for Link 4149-47-48
  WARNING 03: negative offset ignored for Link 4149-46-47
  WARNING 03: negative offset ignored for Link 4149-46-47
  WARNING 03: negative offset ignored for Link 4149-39-40
  WARNING 03: negative offset ignored for Link 4149-39-40
  WARNING 03: negative offset ignored for Link 4149-72-73
  WARNING 03: negative offset ignored for Link 4149-72-73
  WARNING 03: negative offset ignored for Link 4149-71-73
  WARNING 03: negative offset ignored for Link 4149-71-73
  WARNING 03: negative offset ignored for Link 4149-63-64
  WARNING 03: negative offset ignored for Link 4149-63-64
  WARNING 03: negative offset ignored for Link 4148-60-63
  WARNING 03: negative offset ignored for Link 4148-60-63
  WARNING 03: negative offset ignored for Link 4247-63-4248-43
  WARNING 03: negative offset ignored for Link 4247-63-4248-43
  WARNING 03: negative offset ignored for Link 4247-62-63
  WARNING 03: negative offset ignored for Link 4247-62-63
  WARNING 03: negative offset ignored for Link 4247-61-62
  WARNING 03: negative offset ignored for Link 4247-61-62
  WARNING 03: negative offset ignored for Link 4248-46-47
  WARNING 03: negative offset ignored for Link 4248-46-47
  WARNING 03: negative offset ignored for Link 4248-45-46
  WARNING 03: negative offset ignored for Link 4248-45-46
  WARNING 03: negative offset ignored for Link 4248-44-45
  WARNING 03: negative offset ignored for Link 4248-44-45
  WARNING 03: negative offset ignored for Link 4248-43-44
  WARNING 03: negative offset ignored for Link 4248-43-44
  WARNING 03: negative offset ignored for Link 4249-68-69
  WARNING 03: negative offset ignored for Link 4249-68-69
  WARNING 03: negative offset ignored for Link 4249-67-68
  WARNING 03: negative offset ignored for Link 4249-67-68
  WARNING 03: negative offset ignored for Link 4248-48-4249-67
  WARNING 03: negative offset ignored for Link 4248-48-4249-67
  WARNING 03: negative offset ignored for Link 4248-47-48
  WARNING 03: negative offset ignored for Link 4248-47-48
  WARNING 03: negative offset ignored for Link 4249-70-F3
  WARNING 03: negative offset ignored for Link 4249-70-F3
  WARNING 04: minimum elevation drop used for Conduit 4249-70-F3
  WARNING 03: negative offset ignored for Link 4249-69-70
  WARNING 03: negative offset ignored for Link 4249-69-70
  WARNING 03: negative offset ignored for Link 4148-25-26
  WARNING 03: negative offset ignored for Link 4148-25-26
  WARNING 03: negative offset ignored for Link 4148-16-17
  WARNING 03: negative offset ignored for Link 4148-16-17
  WARNING 03: negative offset ignored for Link 4148-15-16
  WARNING 03: negative offset ignored for Link 4148-15-16
  WARNING 03: negative offset ignored for Link 4148-14-15
  WARNING 03: negative offset ignored for Link 4148-14-15
  WARNING 03: negative offset ignored for Link 4148-06-07
  WARNING 03: negative offset ignored for Link 4148-06-07
  WARNING 03: negative offset ignored for Link 4148-03-04
  WARNING 03: negative offset ignored for Link 4148-03-04
  WARNING 03: negative offset ignored for Link 4148-27-4149-72
  WARNING 03: negative offset ignored for Link 4148-27-4149-72
  WARNING 03: negative offset ignored for Link 4148-26-27
  WARNING 03: negative offset ignored for Link 4148-26-27
  WARNING 03: negative offset ignored for Link 4148-07-10
  WARNING 03: negative offset ignored for Link 4148-07-10
  WARNING 03: negative offset ignored for Link 4148-09-4149-76
  WARNING 03: negative offset ignored for Link 4148-09-4149-76
  WARNING 03: negative offset ignored for Link 4148-08-09
  WARNING 03: negative offset ignored for Link 4148-08-09
  WARNING 03: negative offset ignored for Link 4148-07-08
  WARNING 03: negative offset ignored for Link 4148-07-08
  WARNING 03: negative offset ignored for Link 4148-11-251
  WARNING 03: negative offset ignored for Link 4148-11-251
  WARNING 03: negative offset ignored for Link 4148-58-59
  WARNING 03: negative offset ignored for Link 4148-58-59
  WARNING 03: negative offset ignored for Link 4148-57-58
  WARNING 03: negative offset ignored for Link 4148-57-58
  WARNING 03: negative offset ignored for Link 4148-56-60
  WARNING 03: negative offset ignored for Link 4148-56-60
  WARNING 03: negative offset ignored for Link 4148-52-53
  WARNING 03: negative offset ignored for Link 4148-52-53
  WARNING 03: negative offset ignored for Link 4148-34-35
  WARNING 03: negative offset ignored for Link 4148-34-35
  WARNING 03: negative offset ignored for Link 4148-33-34
  WARNING 03: negative offset ignored for Link 4148-33-34
  WARNING 03: negative offset ignored for Link 4148-62-63
  WARNING 03: negative offset ignored for Link 4148-62-63
  WARNING 03: negative offset ignored for Link 4148-61-62
  WARNING 03: negative offset ignored for Link 4148-61-62
  WARNING 03: negative offset ignored for Link 4148-38-39
  WARNING 03: negative offset ignored for Link 4148-38-39
  WARNING 03: negative offset ignored for Link 4148-37-38
  WARNING 03: negative offset ignored for Link 4148-37-38
  WARNING 03: negative offset ignored for Link 4148-36-37
  WARNING 03: negative offset ignored for Link 4148-36-37
  WARNING 03: negative offset ignored for Link 4148-35-36
  WARNING 03: negative offset ignored for Link 4148-35-36
  WARNING 03: negative offset ignored for Link 4148-13-14
  WARNING 03: negative offset ignored for Link 4148-13-14
  WARNING 03: negative offset ignored for Link 4148-12-14
  WARNING 03: negative offset ignored for Link 4148-12-14
  WARNING 03: negative offset ignored for Link 4147-F1-4148-14
  WARNING 03: negative offset ignored for Link 4147-F1-4148-14
  WARNING 03: negative offset ignored for Link 4148-39-4149-66
  WARNING 03: negative offset ignored for Link 4148-39-4149-66
  WARNING 03: negative offset ignored for Link 4149-48-49
  WARNING 03: negative offset ignored for Link 4149-48-49
  WARNING 03: negative offset ignored for Link 4149-43-44
  WARNING 03: negative offset ignored for Link 4149-43-44
  WARNING 03: negative offset ignored for Link 4149-42-43
  WARNING 03: negative offset ignored for Link 4149-42-43
  WARNING 03: negative offset ignored for Link 4149-76-77
  WARNING 03: negative offset ignored for Link 4149-76-77
  WARNING 04: minimum elevation drop used for Conduit 4149-76-77
  WARNING 03: negative offset ignored for Link 4149-67-68
  WARNING 03: negative offset ignored for Link 4149-67-68
  WARNING 03: negative offset ignored for Link 4149-66-67
  WARNING 03: negative offset ignored for Link 4149-66-67
  WARNING 03: negative offset ignored for Link 4149-49-50
  WARNING 03: negative offset ignored for Link 4149-49-50
  WARNING 03: negative offset ignored for Link 4149-80-4249-F3
  WARNING 03: negative offset ignored for Link 4149-80-4249-F3
  WARNING 03: negative offset ignored for Link 4149-79-80
  WARNING 03: negative offset ignored for Link 4149-79-80
  WARNING 03: negative offset ignored for Link 4149-78-79
  WARNING 03: negative offset ignored for Link 4149-78-79
  WARNING 03: negative offset ignored for Link 4149-77-78
  WARNING 03: negative offset ignored for Link 4149-77-78
  WARNING 03: negative offset ignored for Link 4148-46-56
  WARNING 03: negative offset ignored for Link 4148-46-56
  WARNING 03: negative offset ignored for Link 4148-43-44
  WARNING 03: negative offset ignored for Link 4148-43-44
  WARNING 03: negative offset ignored for Link 4148-42-43
  WARNING 03: negative offset ignored for Link 4148-42-43
  WARNING 03: negative offset ignored for Link 4148-41-42
  WARNING 03: negative offset ignored for Link 4148-41-42
  WARNING 03: negative offset ignored for Link 4147-06-4148-13
  WARNING 03: negative offset ignored for Link 4147-06-4148-13
  WARNING 03: negative offset ignored for Link 4147-05-06
  WARNING 03: negative offset ignored for Link 4147-05-06
  WARNING 03: negative offset ignored for Link 4147-04-05
  WARNING 03: negative offset ignored for Link 4147-04-05
  WARNING 03: negative offset ignored for Link 4148-80-4147-06
  WARNING 03: negative offset ignored for Link 4148-80-4147-06
  WARNING 03: negative offset ignored for Link 4149-70-71
  WARNING 03: negative offset ignored for Link 4149-70-71
  WARNING 03: negative offset ignored for Link 4149-69-70
  WARNING 03: negative offset ignored for Link 4149-69-70
  WARNING 03: negative offset ignored for Link 4149-62-63
  WARNING 03: negative offset ignored for Link 4149-62-63
  WARNING 03: negative offset ignored for Link 4149-40-41
  WARNING 03: negative offset ignored for Link 4149-40-41
  WARNING 03: negative offset ignored for Link 4149-64-65
  WARNING 03: negative offset ignored for Link 4149-64-65
  WARNING 03: negative offset ignored for Link 4149-61-62
  WARNING 03: negative offset ignored for Link 4149-61-62
  WARNING 03: negative offset ignored for Link 4149-F5-61
  WARNING 03: negative offset ignored for Link 4149-F5-61
  WARNING 03: negative offset ignored for Link 4149-F4-56
  WARNING 03: negative offset ignored for Link 4149-F4-56
  WARNING 04: minimum elevation drop used for Conduit 4149-F4-56
  WARNING 03: negative offset ignored for Link 4148-63-4149-F4
  WARNING 03: negative offset ignored for Link 4148-63-4149-F4
  WARNING 03: negative offset ignored for Link 4149-74-75
  WARNING 03: negative offset ignored for Link 4149-74-75
  WARNING 03: negative offset ignored for Link 4149-68-69
  WARNING 03: negative offset ignored for Link 4149-68-69
  WARNING 03: negative offset ignored for Link 4149-65-71
  WARNING 03: negative offset ignored for Link 4149-65-71
  WARNING 03: negative offset ignored for Link 4149-50-62
  WARNING 03: negative offset ignored for Link 4149-50-62
  WARNING 03: negative offset ignored for Link 4149-44-62
  WARNING 03: negative offset ignored for Link 4149-44-62
  WARNING 03: negative offset ignored for Link 4149-41-42
  WARNING 03: negative offset ignored for Link 4149-41-42
  WARNING 03: negative offset ignored for Link 4149-60-F5
  WARNING 03: negative offset ignored for Link 4149-60-F5
  WARNING 03: negative offset ignored for Link 4149-59-60
  WARNING 03: negative offset ignored for Link 4149-59-60
  WARNING 03: negative offset ignored for Link 4149-58-59
  WARNING 03: negative offset ignored for Link 4149-58-59
  WARNING 03: negative offset ignored for Link 4149-57-58
  WARNING 03: negative offset ignored for Link 4149-57-58
  WARNING 03: negative offset ignored for Link 4249-F3-4149-04
  WARNING 03: negative offset ignored for Link 4249-F3-4149-04
  WARNING 03: negative offset ignored for Link 4148-66-67
  WARNING 03: negative offset ignored for Link 4148-66-67
  WARNING 03: negative offset ignored for Link 4148-65-66
  WARNING 03: negative offset ignored for Link 4148-65-66
  WARNING 03: negative offset ignored for Link 4148-64-65
  WARNING 03: negative offset ignored for Link 4148-64-65
  WARNING 03: negative offset ignored for Link 4148-70-F4
  WARNING 03: negative offset ignored for Link 4148-70-F4
  WARNING 03: negative offset ignored for Link 4148-69-70
  WARNING 03: negative offset ignored for Link 4148-69-70
  WARNING 03: negative offset ignored for Link 4148-68-69
  WARNING 03: negative offset ignored for Link 4148-68-69
  WARNING 03: negative offset ignored for Link 4148-67-68
  WARNING 03: negative offset ignored for Link 4148-67-68
  WARNING 03: negative offset ignored for Link 4148-F3-78
  WARNING 03: negative offset ignored for Link 4148-F3-78
  WARNING 04: minimum elevation drop used for Conduit 4148-F3-78
  WARNING 03: negative offset ignored for Link 4148-78-77
  WARNING 03: negative offset ignored for Link 4148-78-77
  WARNING 03: negative offset ignored for Link 4148-77-64
  WARNING 03: negative offset ignored for Link 4148-77-64
  WARNING 03: negative offset ignored for Link 4148-F4-71
  WARNING 03: negative offset ignored for Link 4148-F4-71
  WARNING 04: minimum elevation drop used for Conduit 4148-F4-71
  WARNING 03: negative offset ignored for Link 4147-44-45
  WARNING 03: negative offset ignored for Link 4147-44-45
  WARNING 03: negative offset ignored for Link 4147-M42-52
  WARNING 03: negative offset ignored for Link 4147-M42-52
  WARNING 03: negative offset ignored for Link 4147-49-50
  WARNING 03: negative offset ignored for Link 4147-49-50
  WARNING 03: negative offset ignored for Link 4147-47-48
  WARNING 03: negative offset ignored for Link 4147-47-48
  WARNING 03: negative offset ignored for Link 4147-46-F2
  WARNING 03: negative offset ignored for Link 4147-46-F2
  WARNING 04: minimum elevation drop used for Conduit 4147-46-F2
  WARNING 03: negative offset ignored for Link 4147-45-4148-64
  WARNING 03: negative offset ignored for Link 4147-45-4148-64
  WARNING 03: negative offset ignored for Link 4147-F2-47
  WARNING 03: negative offset ignored for Link 4147-F2-47
  WARNING 03: negative offset ignored for Link 4147-52-44
  WARNING 03: negative offset ignored for Link 4147-52-44
  WARNING 03: negative offset ignored for Link 4147-51-4148-77
  WARNING 03: negative offset ignored for Link 4147-51-4148-77
  WARNING 03: negative offset ignored for Link 4147-50-51
  WARNING 03: negative offset ignored for Link 4147-50-51
  WARNING 03: negative offset ignored for Link 4147-07-F1
  WARNING 03: negative offset ignored for Link 4147-07-F1
  WARNING 03: negative offset ignored for Link 4147-48-4148-79
  WARNING 03: negative offset ignored for Link 4147-48-4148-79
  WARNING 03: negative offset ignored for Link 4148-F5-79
  WARNING 03: negative offset ignored for Link 4148-F5-79
  WARNING 03: negative offset ignored for Link 4148-79-F3
  WARNING 03: negative offset ignored for Link 4148-79-F3
  WARNING 04: minimum elevation drop used for Conduit 4148-45-451
  WARNING 02: maximum depth increased for Node 4147-48
  WARNING 02: maximum depth increased for Node 4147-49
  WARNING 02: maximum depth increased for Node 4147-51
  WARNING 02: maximum depth increased for Node 4148-66
  WARNING 02: maximum depth increased for Node 4148-68
  WARNING 02: maximum depth increased for Node 4148-70
  WARNING 02: maximum depth increased for Node 4148-F3
  WARNING 02: maximum depth increased for Node 4147-F2
  WARNING 02: maximum depth increased for Node 4148-F4
  WARNING 02: maximum depth increased for Node 4148-71
  
  *************
  Element Count
  *************
  Number of rain gages ...... 1
  Number of subcatchments ... 82
  Number of nodes ........... 145
  Number of links ........... 139
  Number of pollutants ...... 0
  Number of land uses ....... 0
  
  
  ****************
  Raingage Summary
  ****************
                                                      Data       Recording
  Name                 Data Source                    Type       Interval 
  ------------------------------------------------------------------------
  RG1                  RainSeries1                    INTENSITY   60 min.
  
  
  ********************
  Subcatchment Summary
  ********************
  Name                       Area     Width   %Imperv    %Slope Rain Gage            Outlet              
  -----------------------------------------------------------------------------------------------------------
  1                          0.40    500.00      0.00    0.5000 RG1                  4148-451            
  2                          0.32    500.00      0.00    0.5000 RG1                  4149-64             
  5                          1.81    500.00     90.00    0.5000 RG1                  4149-46             
  6                          0.86    500.00     90.00    0.5000 RG1                  4149-48             
  7                          1.19    500.00     90.00    0.5000 RG1                  4149-50             
  8                          0.72    500.00     90.00    0.5000 RG1                  4149-69             
  9                          0.46    500.00     90.00    0.5000 RG1                  4149-74             
  10                         1.04    500.00     90.00    0.5000 RG1                  4149-78             
  11                         0.70    500.00     90.00    0.5000 RG1                  4149-79             
  14                         0.75    500.00     90.00    0.5000 RG1                  4149-80             
  15                         0.59    500.00     90.00    0.5000 RG1                  4249-70             
  16                         0.28    500.00     90.00    0.5000 RG1                  4249-69             
  17                         1.11    500.00     90.00    0.5000 RG1                  4149-77             
  18                         0.69    500.00     90.00    0.5000 RG1                  4249-68             
  19                         0.97    500.00     90.00    0.5000 RG1                  4149-75             
  20                         0.65    500.00     90.00    0.5000 RG1                  4149-72             
  21                         0.44    500.00     90.00    0.5000 RG1                  4149-76             
  22                         1.61    500.00     90.00    0.5000 RG1                  4148-09             
  23                         1.01    500.00     90.00    0.5000 RG1                  4248-48             
  24                         1.47    500.00     90.00    0.5000 RG1                  4148-27             
  25                         1.04    500.00     90.00    0.5000 RG1                  4148-11             
  26                         1.19    500.00     90.00    0.5000 RG1                  4148-08             
  27                         1.16    500.00     90.00    0.5000 RG1                  4148-10             
  28                         0.98    500.00     90.00    0.5000 RG1                  4148-06             
  29                         0.94    500.00     90.00    0.5000 RG1                  4248-47             
  30                         1.00    500.00     90.00    0.5000 RG1                  4148-04             
  31                         1.16    500.00     90.00    0.5000 RG1                  4148-231            
  32                         1.38    500.00     90.00    0.5000 RG1                  4149-70             
  33                         1.21    500.00     90.00    0.5000 RG1                  4149-63             
  34                         0.58    500.00     90.00    0.5000 RG1                  4149-F4             
  35                         1.10    500.00     90.00    0.5000 RG1                  4148-63             
  36                         0.58    500.00     90.00    0.5000 RG1                  4149-68             
  37                         1.13    500.00     90.00    0.5000 RG1                  4148-39             
  38                         1.08    500.00     90.00    0.5000 RG1                  4149-42             
  39                         1.10    500.00     90.00    0.5000 RG1                  4149-F4             
  40                         0.76    500.00     90.00    0.5000 RG1                  4148-62             
  41                         1.01    500.00     90.00    0.5000 RG1                  4149-40             
  42                         0.94    500.00     90.00    0.5000 RG1                  4149-39             
  43                         1.37    500.00     90.00    0.5000 RG1                  4148-61             
  44                         0.48    500.00     90.00    0.5000 RG1                  4148-57             
  45                         0.52    500.00     90.00    0.5000 RG1                  4148-59             
  46                         0.90    500.00     90.00    0.5000 RG1                  4148-52             
  47                         1.06    500.00     90.00    0.5000 RG1                  4148-54             
  48                         0.92    500.00     90.00    0.5000 RG1                  4148-70             
  49                         0.76    500.00     90.00    0.5000 RG1                  4148-55             
  50                         0.51    500.00     90.00    0.5000 RG1                  4148-37             
  51                         0.62    500.00     90.00    0.5000 RG1                  4148-36             
  52                         1.18    500.00     90.00    0.5000 RG1                  4148-35             
  53                         1.11    500.00     90.00    0.5000 RG1                  4148-34             
  54                         1.33    500.00     90.00    0.5000 RG1                  4148-33             
  55                         1.13    500.00     90.00    0.5000 RG1                  4148-25             
  56                         0.62    500.00     90.00    0.5000 RG1                  4148-41             
  57                         1.14    500.00     90.00    0.5000 RG1                  4148-68             
  58                         1.13    500.00     90.00    0.5000 RG1                  4148-42             
  59                         1.59    500.00     90.00    0.5000 RG1                  4148-66             
  60                         1.21    500.00     90.00    0.5000 RG1                  4148-40             
  61                         0.56    500.00     90.00    0.5000 RG1                  4148-44             
  62                         1.19    500.00     90.00    0.5000 RG1                  4148-22             
  63                         1.46    500.00     90.00    0.5000 RG1                  4148-43             
  64                         1.50    500.00     90.00    0.5000 RG1                  4148-19             
  65                         1.28    500.00     90.00    0.5000 RG1                  4148-40             
  66                         0.77    500.00     90.00    0.5000 RG1                  4147-07             
  67                         0.69    500.00     90.00    0.5000 RG1                  4148-20             
  68                         0.87    500.00     90.00    0.5000 RG1                  4148-21             
  69                         0.79    500.00     90.00    0.5000 RG1                  4148-18             
  70                         0.96    500.00     90.00    0.5000 RG1                  4148-03             
  71                         0.97    500.00     90.00    0.5000 RG1                  4248-45             
  72                         1.00    500.00     90.00    0.5000 RG1                  4248-44             
  73                         1.35    500.00     90.00    0.5000 RG1                  4148-16             
  74                         1.67    500.00     90.00    0.5000 RG1                  4248-43             
  75                         1.77    500.00     90.00    0.5000 RG1                  4148-80             
  76                         0.98    500.00     90.00    0.5000 RG1                  4147-04             
  77                         1.21    500.00     90.00    0.5000 RG1                  4247-62             
  78                         0.64    500.00     90.00    0.5000 RG1                  4147-45             
  79                         0.69    500.00     90.00    0.5000 RG1                  4147-48             
  80                         0.68    500.00     90.00    0.5000 RG1                  4147-44             
  81                         0.75    500.00     90.00    0.5000 RG1                  4147-49             
  82                         1.05    500.00     90.00    0.5000 RG1                  4147-52             
  83                         0.92    500.00     90.00    0.5000 RG1                  4147-46             
  84                         1.14    500.00     90.00    0.5000 RG1                  4147-F2             
  S1                         4.00    400.00     50.00    0.5000 RG1                  12                  
  S2                         4.00    400.00     50.00    0.5000 RG1                  13                  
  
  
  ************
  Node Summary
  ************
                                           Invert      Max.    Ponded    External
  Name                 Type                 Elev.     Depth      Area    Inflow  
  -------------------------------------------------------------------------------
  4147-07              JUNCTION              3.70      2.25       0.0
  4147-44              JUNCTION              3.57      3.30       0.0
  4147-45              JUNCTION              3.82      3.45       0.0
  4147-46              JUNCTION              3.67      2.10       0.0
  4147-47              JUNCTION              3.36      1.97       0.0
  4147-48              JUNCTION              3.16      1.00       0.0
  4147-49              JUNCTION              3.28      1.00       0.0
  4147-50              JUNCTION              3.48      1.96       0.0
  4147-51              JUNCTION              3.28      1.00       0.0
  4147-52              JUNCTION              3.58      3.15       0.0
  4147-F1              JUNCTION              3.88      2.07       0.0
  4148-64              JUNCTION              5.29      5.10       0.0
  4148-65              JUNCTION              3.41      3.15       0.0
  4148-66              JUNCTION              3.19      2.34       0.0
  4148-67              JUNCTION              3.14      3.08       0.0
  4148-68              JUNCTION              2.84      2.00       0.0
  4148-69              JUNCTION              2.87      3.40       0.0
  4148-70              JUNCTION              2.79      2.00       0.0
  4148-77              JUNCTION              3.12      3.16       0.0
  4148-78              JUNCTION              3.01      3.30       0.0
  4148-79              JUNCTION              2.81      1.95       0.0
  4148-F3              JUNCTION              3.01      2.00       0.0
  4147-F2              JUNCTION              3.67      1.00       0.0
  4148-F4              JUNCTION              2.64      2.34       0.0
  4148-71              JUNCTION              2.64      2.34       0.0
  4148-F2              JUNCTION              5.34      3.70       0.0
  4148-F5              JUNCTION              3.40      1.99       0.0
  4247-62              JUNCTION              4.14      5.13       0.0
  4247-63              JUNCTION              4.26      5.31       0.0
  4248-43              JUNCTION              2.37      4.83       0.0
  4248-44              JUNCTION              3.83      4.83       0.0
  4248-45              JUNCTION              3.89      4.84       0.0
  4248-46              JUNCTION              2.31      4.84       0.0
  4248-47              JUNCTION              3.71      4.83       0.0
  4248-48              JUNCTION              3.51      4.66       0.0
  4249-67              JUNCTION              3.65      4.50       0.0
  4249-68              JUNCTION              2.16      4.74       0.0
  4249-69              JUNCTION              3.11      4.74       0.0
  4249-70              JUNCTION              3.30      4.73       0.0
  4249-F3              JUNCTION              3.30      4.73       0.0
  4149-39              JUNCTION              2.89      2.20       0.0
  4149-40              JUNCTION              3.08      2.30       0.0
  4149-42              JUNCTION              2.91      2.40       0.0
  4149-43              JUNCTION              2.90      2.55       0.0
  4149-44              JUNCTION              2.95      2.80       0.0
  4149-46              JUNCTION              3.26      1.57       0.0
  4149-47              JUNCTION              3.17      1.40       0.0
  4149-48              JUNCTION              3.19      1.78       0.0
  4149-49              JUNCTION              3.15      2.64       0.0
  4149-50              JUNCTION              3.16      2.64       0.0
  4149-56              JUNCTION              2.77      2.71       0.0
  4149-57              JUNCTION              2.96      1.40       0.0
  4149-59              JUNCTION              2.70      1.40       0.0
  4149-61              JUNCTION              2.78      2.98       0.0
  4149-63              JUNCTION              2.80      3.25       0.0
  4149-64              JUNCTION              2.85      3.16       0.0
  4149-66              JUNCTION              2.64      2.65       0.0
  4149-67              JUNCTION              2.74      2.65       0.0
  4149-68              JUNCTION              2.54      2.93       0.0
  4149-71              JUNCTION              2.70      2.49       0.0
  4149-72              JUNCTION              2.85      4.00       0.0
  4149-73              JUNCTION              2.76      3.07       0.0
  4149-74              JUNCTION              2.86      4.00       0.0
  4149-76              JUNCTION              2.98      4.10       0.0
  4149-77              JUNCTION              2.98      4.30       0.0
  4149-78              JUNCTION              2.63      4.23       0.0
  4149-79              JUNCTION              2.56      3.95       0.0
  4149-80              JUNCTION              2.65      4.50       0.0
  4148-40              JUNCTION              3.41      2.00       0.0
  4148-41              JUNCTION              2.32      2.80       0.0
  4148-42              JUNCTION              3.33      2.80       0.0
  4148-43              JUNCTION              3.34      2.60       0.0
  4148-44              JUNCTION              3.31      2.95       0.0
  4148-46              JUNCTION              2.83      3.00       0.0
  4148-51              JUNCTION              2.69      2.60       0.0
  4148-52              JUNCTION              2.51      2.30       0.0
  4148-53              JUNCTION              2.47      2.30       0.0
  4148-47              JUNCTION              2.26      2.30       0.0
  4148-54              JUNCTION              2.34      1.92       0.0
  4148-55              JUNCTION              2.36      2.28       0.0
  4148-56              JUNCTION              2.46      2.60       0.0
  4148-57              JUNCTION              1.89      1.76       0.0
  4148-58              JUNCTION              2.67      1.76       0.0
  4148-59              JUNCTION              2.75      1.95       0.0
  4148-60              JUNCTION              2.54      2.44       0.0
  4148-61              JUNCTION              3.41      1.74       0.0
  4148-62              JUNCTION              3.10      1.74       0.0
  4148-63              JUNCTION              2.61      2.63       0.0
  4148-33              JUNCTION              2.52      1.53       0.0
  4148-34              JUNCTION              2.67      2.20       0.0
  4148-35              JUNCTION              2.29      2.10       0.0
  4148-36              JUNCTION              1.57      2.10       0.0
  4148-37              JUNCTION              2.28      2.05       0.0
  4148-38              JUNCTION              2.55      2.25       0.0
  4148-39              JUNCTION              2.78      2.40       0.0
  4148-12              JUNCTION              2.48      2.82       0.0
  4148-13              JUNCTION              2.43      2.82       0.0
  4148-14              JUNCTION              3.44      2.55       0.0
  4148-15              JUNCTION              3.41      2.55       0.0
  4148-16              JUNCTION              3.21      2.55       0.0
  4148-17              JUNCTION              3.60      3.81       0.0
  4148-18              JUNCTION              3.44      4.06       0.0
  4148-19              JUNCTION              3.11      4.01       0.0
  4148-20              JUNCTION              3.10      3.90       0.0
  4148-21              JUNCTION              3.01      3.85       0.0
  4148-22              JUNCTION              2.97      3.69       0.0
  4148-23              JUNCTION              2.83      3.57       0.0
  4148-231             JUNCTION              2.50      3.77       0.0
  4148-24              JUNCTION              2.34      3.70       0.0
  4148-25              JUNCTION              2.50      3.70       0.0
  4148-26              JUNCTION              2.52      4.00       0.0
  4148-27              JUNCTION              2.45      3.80       0.0
  4148-03              JUNCTION              1.54      2.60       0.0
  4148-04              JUNCTION              3.33      2.60       0.0
  4148-05              JUNCTION              3.48      2.66       0.0
  4148-06              JUNCTION              2.92      2.53       0.0
  4148-07              JUNCTION              3.34      2.82       0.0
  4148-08              JUNCTION              2.97      3.80       0.0
  4148-09              JUNCTION              3.03      3.83       0.0
  4148-10              JUNCTION              2.83      2.33       0.0
  4148-11              JUNCTION              2.76      2.43       0.0
  4148-251             JUNCTION              2.75      2.43       0.0
  4149-41              JUNCTION              2.83      2.30       0.0
  4149-F4              JUNCTION              2.77      2.71       0.0
  4149-58              JUNCTION              2.81      2.15       0.0
  4149-60              JUNCTION              2.52      1.40       0.0
  4149-F5              JUNCTION              2.71      2.98       0.0
  4149-62              JUNCTION              2.57      2.75       0.0
  4149-65              JUNCTION              2.65      2.82       0.0
  4149-69              JUNCTION              2.34      3.17       0.0
  4149-70              JUNCTION              2.35      2.91       0.0
  4149-75              JUNCTION              2.62      4.22       0.0
  4148-80              JUNCTION              2.95      2.82       0.0
  4147-04              JUNCTION              2.34      2.95       0.0
  4147-05              JUNCTION              3.56      2.95       0.0
  4147-06              JUNCTION              3.68      2.82       0.0
  4148-45              JUNCTION              2.71      3.40       0.0
  4148-451             JUNCTION              2.71      3.00       0.0
  4148-49              JUNCTION              2.72      3.40       0.0
  4148-50              JUNCTION              2.64      2.30       0.0
  4149-04              JUNCTION              2.88      4.80       0.0
  4147-M42             JUNCTION              3.96      2.50       0.0
  4247-61              JUNCTION              4.02      4.91       0.0
  12                   OUTFALL               3.08      0.00       0.0
  13                   OUTFALL               3.08      0.00       0.0
  
  
  ************
  Link Summary
  ************
  Name             From Node        To Node          Type            Length    %Slope Roughness
  ---------------------------------------------------------------------------------------------
  4148-10-11       4148-10          4148-11          CONDUIT           41.0    0.1706    0.0150
  4148-05-06       4148-05          4148-06          CONDUIT           37.0    1.5129    0.0150
  4148-04-05       4148-04          4148-05          CONDUIT           83.5   -0.1796    0.0150
  4148-24-25       4148-24          4148-25          CONDUIT           81.0   -0.1976    0.0150
  4148-51-52       4148-51          4148-52          CONDUIT           43.8    0.4112    0.0150
  4148-44-46       4148-44          4148-46          CONDUIT           45.0    1.0679    0.0150
  4148-40-43       4148-40          4148-43          CONDUIT          138.1    0.0507    0.0150
  4149-73-74       4149-73          4149-74          CONDUIT           42.4   -0.2356    0.0150
  4148-59-60       4148-59          4148-60          CONDUIT          123.9    0.1695    0.0150
  4148-55-56       4148-55          4148-56          CONDUIT           53.0   -0.1886    0.0150
  4148-53-55       4148-53          4148-55          CONDUIT           75.8    0.1451    0.0150
  4148-53-47       4148-53          4148-47          CONDUIT           44.5    0.4721    0.0150
  4148-20-21       4148-20          4148-21          CONDUIT           35.4    0.2545    0.0150
  4148-19-20       4148-19          4148-20          CONDUIT           33.8    0.0296    0.0150
  4148-18-19       4148-18          4148-19          CONDUIT           35.4    0.9317    0.0150
  4148-17-18       4148-17          4148-18          CONDUIT           20.7    0.7730    0.0150
  4148-231-24      4148-231         4148-24          CONDUIT           16.4    0.9745    0.0150
  4148-23-231      4148-23          4148-231         CONDUIT           61.7    0.5347    0.0150
  4148-22-23       4148-22          4148-23          CONDUIT           38.6    0.3624    0.0150
  4148-21-22       4148-21          4148-22          CONDUIT            8.8    0.4561    0.0150
  4149-47-48       4149-47          4149-48          CONDUIT           19.2   -0.1042    0.0150
  4149-46-47       4149-46          4149-47          CONDUIT            7.1    1.2606    0.0150
  4149-39-40       4149-39          4149-40          CONDUIT           58.8   -0.3230    0.0150
  4149-72-73       4149-72          4149-73          CONDUIT          137.7    0.0654    0.0150
  4149-71-73       4149-71          4149-73          CONDUIT           32.2   -0.1863    0.0150
  4149-63-64       4149-63          4149-64          CONDUIT           52.1   -0.0960    0.0150
  4148-60-63       4148-60          4148-63          CONDUIT          126.8   -0.0552    0.0150
  4247-63-4248-43  4247-63          4248-43          CONDUIT          109.3    1.7319    0.0150
  4247-62-63       4247-62          4247-63          CONDUIT           85.6   -0.1402    0.0150
  4247-61-62       4247-61          4247-62          CONDUIT           91.8   -0.1350    0.0150
  4248-46-47       4248-46          4248-47          CONDUIT          155.5   -0.9017    0.0150
  4248-45-46       4248-45          4248-46          CONDUIT           53.8    2.9418    0.0150
  4248-44-45       4248-44          4248-45          CONDUIT          106.8   -0.0562    0.0150
  4248-43-44       4248-43          4248-44          CONDUIT           87.8   -1.6637    0.0150
  4249-68-69       4249-68          4249-69          CONDUIT           89.1   -1.0673    0.0150
  4249-67-68       4249-67          4249-68          CONDUIT           90.7    1.6481    0.0150
  4248-48-4249-67  4248-48          4249-67          CONDUIT           95.1   -0.1472    0.0150
  4248-47-48       4248-47          4248-48          CONDUIT          127.6    0.1568    0.0150
  4249-70-F3       4249-70          4249-F3          CONDUIT           51.0    0.0006    0.0150
  4249-69-70       4249-69          4249-70          CONDUIT           90.0   -0.2145    0.0150
  4148-25-26       4148-25          4148-26          CONDUIT           84.9   -0.0283    0.0150
  4148-16-17       4148-16          4148-17          CONDUIT           32.1   -1.2299    0.0150
  4148-15-16       4148-15          4148-16          CONDUIT           14.3    1.4377    0.0150
  4148-14-15       4148-14          4148-15          CONDUIT           45.2    0.0752    0.0150
  4148-06-07       4148-06          4148-07          CONDUIT           41.6   -1.0106    0.0150
  4148-03-04       4148-03          4148-04          CONDUIT           84.7   -2.1087    0.0150
  4148-27-4149-72  4148-27          4149-72          CONDUIT           44.5   -0.8995    0.0150
  4148-26-27       4148-26          4148-27          CONDUIT           55.3    0.1338    0.0150
  4148-07-10       4148-07          4148-10          CONDUIT           71.2    0.7161    0.0150
  4148-09-4149-76  4148-09          4149-76          CONDUIT           89.4    0.0559    0.0150
  4148-08-09       4148-08          4148-09          CONDUIT           78.7   -0.0762    0.0150
  4148-07-08       4148-07          4148-08          CONDUIT           58.6    0.6315    0.0150
  4148-11-251      4148-11          4148-251         CONDUIT           28.8    0.0347    0.0150
  4148-58-59       4148-58          4148-59          CONDUIT           15.3   -0.5222    0.0150
  4148-57-58       4148-57          4148-58          CONDUIT           96.6   -0.8064    0.0150
  4148-56-60       4148-56          4148-60          CONDUIT           86.4   -0.0925    0.0150
  4148-52-53       4148-52          4148-53          CONDUIT           42.1    0.0950    0.0150
  4148-34-35       4148-34          4148-35          CONDUIT           41.6    0.9034    0.0150
  4148-33-34       4148-33          4148-34          CONDUIT           91.2   -0.1656    0.0150
  4148-62-63       4148-62          4148-63          CONDUIT           99.9    0.4903    0.0150
  4148-61-62       4148-61          4148-62          CONDUIT           27.8    1.1144    0.0150
  4148-38-39       4148-38          4148-39          CONDUIT           49.5   -0.4649    0.0150
  4148-37-38       4148-37          4148-38          CONDUIT           29.6   -0.9091    0.0150
  4148-36-37       4148-36          4148-37          CONDUIT           52.5   -1.3615    0.0150
  4148-35-36       4148-35          4148-36          CONDUIT           42.3    1.7217    0.0150
  4148-13-14       4148-13          4148-14          CONDUIT           12.3   -8.2392    0.0150
  4148-12-14       4148-12          4148-14          CONDUIT           20.2   -4.7659    0.0150
  4147-F1-4148-14  4147-F1          4148-14          CONDUIT           16.2    2.6857    0.0150
  4148-39-4149-66  4148-39          4149-66          CONDUIT           41.5    0.3370    0.0150
  4149-48-49       4149-48          4149-49          CONDUIT           28.4    0.1408    0.0150
  4149-43-44       4149-43          4149-44          CONDUIT           46.3   -0.1079    0.0150
  4149-42-43       4149-42          4149-43          CONDUIT           37.8    0.0264    0.0150
  4149-76-77       4149-76          4149-77          CONDUIT           94.7    0.0003    0.0150
  4149-67-68       4149-67          4149-68          CONDUIT           95.0    0.2105    0.0150
  4149-66-67       4149-66          4149-67          CONDUIT           44.0   -0.2273    0.0150
  4149-49-50       4149-49          4149-50          CONDUIT           43.3   -0.0231    0.0150
  4149-80-4249-F3  4149-80          4249-F3          CONDUIT           56.0   -1.1614    0.0150
  4149-79-80       4149-79          4149-80          CONDUIT           24.9   -0.3610    0.0150
  4149-78-79       4149-78          4149-79          CONDUIT           41.2    0.1701    0.0150
  4149-77-78       4149-77          4149-78          CONDUIT           55.0    0.6367    0.0150
  4148-46-56       4148-46          4148-56          CONDUIT           95.9    0.3858    0.0150
  4148-43-44       4148-43          4148-44          CONDUIT           19.9    0.1511    0.0150
  4148-42-43       4148-42          4148-43          CONDUIT           13.9   -0.0720    0.0150
  4148-41-42       4148-41          4148-42          CONDUIT          118.7   -0.8507    0.0150
  4147-06-4148-13  4147-06          4148-13          CONDUIT           11.2   11.1864    0.0150
  4147-05-06       4147-05          4147-06          CONDUIT           11.9   -0.9648    0.0150
  4147-04-05       4147-04          4147-05          CONDUIT           11.3  -10.8840    0.0150
  4148-80-4147-06  4148-80          4147-06          CONDUIT          150.7   -0.4813    0.0150
  4149-70-71       4149-70          4149-71          CONDUIT           78.5   -0.4456    0.0150
  4149-69-70       4149-69          4149-70          CONDUIT           30.0   -0.0333    0.0150
  4149-62-63       4149-62          4149-63          CONDUIT           86.6   -0.2656    0.0150
  4149-40-41       4149-40          4149-41          CONDUIT           55.4    0.4419    0.0150
  4149-64-65       4149-64          4149-65          CONDUIT           93.6    0.2116    0.0150
  4149-61-62       4149-61          4149-62          CONDUIT           44.0    0.4774    0.0150
  4149-F5-61       4149-F5          4149-61          CONDUIT           46.6   -0.1501    0.0150
  4149-F4-56       4149-F4          4149-56          CONDUIT           44.6    0.0007    0.0150
  4148-63-4149-F4  4148-63          4149-F4          CONDUIT           44.0   -0.3636    0.0150
  4149-74-75       4149-74          4149-75          CONDUIT           58.2    0.4108    0.0150
  4149-68-69       4149-68          4149-69          CONDUIT           44.0    0.4547    0.0150
  4149-65-71       4149-65          4149-71          CONDUIT           42.0   -0.1144    0.0150
  4149-50-62       4149-50          4149-62          CONDUIT           49.2    1.1988    0.0150
  4149-44-62       4149-44          4149-62          CONDUIT           10.9    3.4820    0.0150
  4149-41-42       4149-41          4149-42          CONDUIT           40.5   -0.1851    0.0150
  4149-60-F5       4149-60          4149-F5          CONDUIT           32.0   -0.6039    0.0150
  4149-59-60       4149-59          4149-60          CONDUIT           62.0    0.2950    0.0150
  4149-58-59       4149-58          4149-59          CONDUIT           30.7    0.3580    0.0150
  4149-57-58       4149-57          4149-58          CONDUIT           11.8    1.2681    0.0150
  4249-F3-4149-04  4249-F3          4149-04          CONDUIT           42.4    0.9885    0.0150
  4148-66-67       4148-66          4148-67          CONDUIT           62.7    0.0797    0.0150
  4148-65-66       4148-65          4148-66          CONDUIT           39.5    0.5570    0.0150
  4148-64-65       4148-64          4148-65          CONDUIT           57.0    3.3000    0.0150
  4148-70-F4       4148-70          4148-F4          CONDUIT           45.3    0.3311    0.0150
  4148-69-70       4148-69          4148-70          CONDUIT           60.6    0.1320    0.0150
  4148-68-69       4148-68          4148-69          CONDUIT           49.4   -0.0607    0.0150
  4148-67-68       4148-67          4148-68          CONDUIT           51.8    0.5792    0.0150
  4148-F3-78       4148-F3          4148-78          CONDUIT          116.0    0.0003    0.0150
  4148-78-77       4148-78          4148-77          CONDUIT           12.4   -0.8871    0.0150
  4148-77-64       4148-77          4148-64          CONDUIT          115.7   -1.8759    0.0150
  4148-F4-71       4148-F4          4148-71          CONDUIT           14.4    0.0021    0.0150
  4147-44-45       4147-44          4147-45          CONDUIT           75.5   -0.3311    0.0150
  4147-M42-52      4147-M42         4147-52          CONDUIT           56.6    0.6714    0.0150
  4147-49-50       4147-49          4147-50          CONDUIT           63.2   -0.3133    0.0150
  4147-47-48       4147-47          4147-48          CONDUIT           62.9    0.3214    0.0150
  4147-46-F2       4147-46          4147-F2          CONDUIT           40.4    0.0008    0.0150
  4147-45-4148-64  4147-45          4148-64          CONDUIT           62.5   -2.3527    0.0150
  4147-F2-47       4147-F2          4147-47          CONDUIT           58.9    0.5265    0.0150
  4147-52-44       4147-52          4147-44          CONDUIT           69.1    0.0145    0.0150
  4147-51-4148-77  4147-51          4148-77          CONDUIT           14.1    1.1458    0.0150
  4147-50-51       4147-50          4147-51          CONDUIT           60.0    0.3302    0.0150
  4147-07-F1       4147-07          4147-F1          CONDUIT           28.0   -0.6433    0.0150
  4147-48-4148-79  4147-48          4148-79          CONDUIT           15.6    2.2107    0.0150
  4148-F5-79       4148-F5          4148-79          CONDUIT           14.0    4.2086    0.0150
  4148-79-F3       4148-79          4148-F3          CONDUIT           20.2   -0.9753    0.0150
  4148-50-53       4148-50          4148-53          CONDUIT          400.0    0.0425    0.0150
  4148-45-451      4148-45          4148-451         CONDUIT           54.9    0.0006    0.0150
  4148-451-46      4148-451         4148-46          CONDUIT           73.8   -0.1627    0.0150
  4148-54-55       4148-54          4148-55          CONDUIT           43.0   -0.0465    0.0100
  1                4148-71          12               TYPE3 PUMP  
  2                4148-66          13               TYPE3 PUMP  
  
  
  *********************
  Cross Section Summary
  *********************
                                        Full     Full     Hyd.     Max.   No. of     Full
  Conduit          Shape               Depth     Area     Rad.    Width  Barrels     Flow
  ---------------------------------------------------------------------------------------
  4148-10-11       CIRCULAR             1.00     0.79     0.25     1.00        1     0.86
  4148-05-06       CIRCULAR             1.00     0.79     0.25     1.00        1     2.56
  4148-04-05       CIRCULAR             1.00     0.79     0.25     1.00        1     0.88
  4148-24-25       CIRCULAR             1.80     2.54     0.45     1.80        1     4.43
  4148-51-52       CIRCULAR             1.20     1.13     0.30     1.20        1     2.17
  4148-44-46       CIRCULAR             1.65     2.14     0.41     1.65        1     8.16
  4148-40-43       CIRCULAR             1.00     0.79     0.25     1.00        1     0.47
  4149-73-74       RECT_CLOSED          2.94     9.70     0.78     3.30        1    26.55
  4148-59-60       CIRCULAR             1.00     0.79     0.25     1.00        1     0.86
  4148-55-56       CIRCULAR             1.35     1.43     0.34     1.35        1     2.01
  4148-53-55       CIRCULAR             1.35     1.43     0.34     1.35        1     1.76
  4148-53-47       CIRCULAR             1.00     0.79     0.25     1.00        1     1.43
  4148-20-21       CIRCULAR             1.20     1.13     0.30     1.20        1     1.70
  4148-19-20       CIRCULAR             1.20     1.13     0.30     1.20        1     0.58
  4148-18-19       CIRCULAR             1.20     1.13     0.30     1.20        1     3.26
  4148-17-18       CIRCULAR             1.20     1.13     0.30     1.20        1     2.97
  4148-231-24      CIRCULAR             1.80     2.54     0.45     1.80        1     9.84
  4148-23-231      CIRCULAR             1.50     1.77     0.38     1.50        1     4.48
  4148-22-23       CIRCULAR             1.20     1.13     0.30     1.20        1     2.03
  4148-21-22       CIRCULAR             1.20     1.13     0.30     1.20        1     2.28
  4149-47-48       CIRCULAR             1.00     0.79     0.25     1.00        1     0.67
  4149-46-47       CIRCULAR             1.00     0.79     0.25     1.00        1     2.33
  4149-39-40       CIRCULAR             1.00     0.79     0.25     1.00        1     1.18
  4149-72-73       CIRCULAR             1.80     2.54     0.45     1.80        1     2.55
  4149-71-73       RECT_CLOSED          2.04     5.10     0.56     2.50        1     9.99
  4149-63-64       RECT_CLOSED          1.80     4.50     0.52     2.50        1     6.04
  4148-60-63       CIRCULAR             1.80     2.54     0.45     1.80        1     2.34
  4247-63-4248-43  RECT_CLOSED          3.50    15.86     0.99     4.53        1   137.94
  4247-62-63       RECT_CLOSED          3.50    15.89     0.99     4.54        1    39.36
  4247-61-62       RECT_CLOSED          3.50    15.92     0.99     4.55        1    38.74
  4248-46-47       RECT_CLOSED          3.50    15.78     0.99     4.51        1    98.96
  4248-45-46       RECT_CLOSED          3.50    15.75     0.98     4.50        1   178.24
  4248-44-45       RECT_CLOSED          3.50    15.75     0.98     4.50        1    24.64
  4248-43-44       RECT_CLOSED          3.50    15.75     0.98     4.50        1   134.04
  4249-68-69       RECT_CLOSED          3.50    15.86     0.99     4.53        1   108.28
  4249-67-68       RECT_CLOSED          3.50    15.86     0.99     4.53        1   134.56
  4248-48-4249-67  RECT_CLOSED          3.50    15.86     0.99     4.53        1    40.22
  4248-47-48       RECT_CLOSED          3.50    15.82     0.99     4.52        1    41.38
  4249-70-F3       RECT_CLOSED          3.53    15.88     0.99     4.50        1     2.57
  4249-69-70       RECT_CLOSED          3.53    15.99     0.99     4.53        1    49.11
  4148-25-26       RECT_CLOSED          1.10     1.98     0.34     1.80        1     1.08
  4148-16-17       CIRCULAR             1.20     1.13     0.30     1.20        1     3.75
  4148-15-16       CIRCULAR             1.20     1.13     0.30     1.20        1     4.05
  4148-14-15       CIRCULAR             1.50     1.77     0.38     1.50        1     1.68
  4148-06-07       CIRCULAR             1.00     0.79     0.25     1.00        1     2.09
  4148-03-04       CIRCULAR             1.00     0.79     0.25     1.00        1     3.02
  4148-27-4149-72  RECT_CLOSED          1.50     2.70     0.41     1.80        1     9.41
  4148-26-27       RECT_CLOSED          1.50     2.70     0.41     1.80        1     3.63
  4148-07-10       CIRCULAR             1.00     0.79     0.25     1.00        1     1.76
  4148-09-4149-76  RECT_CLOSED          2.60     8.19     0.71     3.15        1    10.30
  4148-08-09       RECT_CLOSED          2.00     6.80     0.63     3.40        1     9.20
  4148-07-08       RECT_CLOSED          2.00     6.80     0.63     3.40        1    26.47
  4148-11-251      CIRCULAR             1.00     0.79     0.25     1.00        1     0.39
  4148-58-59       CIRCULAR             1.00     0.79     0.25     1.00        1     1.50
  4148-57-58       CIRCULAR             1.00     0.79     0.25     1.00        1     1.87
  4148-56-60       CIRCULAR             1.80     2.54     0.45     1.80        1     3.03
  4148-52-53       CIRCULAR             1.20     1.13     0.30     1.20        1     1.04
  4148-34-35       CIRCULAR             1.40     1.54     0.35     1.40        1     4.85
  4148-33-34       CIRCULAR             1.20     1.13     0.30     1.20        1     1.38
  4148-62-63       CIRCULAR             1.00     0.79     0.25     1.00        1     1.46
  4148-61-62       CIRCULAR             1.00     0.79     0.25     1.00        1     2.19
  4148-38-39       CIRCULAR             1.50     1.77     0.38     1.50        1     4.18
  4148-37-38       CIRCULAR             1.40     1.54     0.35     1.40        1     4.86
  4148-36-37       CIRCULAR             1.40     1.54     0.35     1.40        1     5.95
  4148-35-36       CIRCULAR             1.80     2.54     0.45     1.80        1    13.07
  4148-13-14       CIRCULAR             1.50     1.77     0.38     1.50        1    17.59
  4148-12-14       CIRCULAR             1.00     0.79     0.25     1.00        1     4.54
  4147-F1-4148-14  CIRCULAR             1.50     1.77     0.38     1.50        1    10.04
  4148-39-4149-66  CIRCULAR             1.50     1.77     0.38     1.50        1     3.56
  4149-48-49       CIRCULAR             1.00     0.79     0.25     1.00        1     0.78
  4149-43-44       CIRCULAR             1.20     1.13     0.30     1.20        1     1.11
  4149-42-43       CIRCULAR             1.20     1.13     0.30     1.20        1     0.55
  4149-76-77       RECT_CLOSED          2.60     8.58     0.73     3.30        1     0.83
  4149-67-68       CIRCULAR             1.65     2.14     0.41     1.65        1     3.63
  4149-66-67       CIRCULAR             1.50     1.77     0.38     1.50        1     2.92
  4149-49-50       CIRCULAR             1.00     0.79     0.25     1.00        1     0.32
  4149-80-4249-F3  RECT_CLOSED          3.40    13.60     0.92     4.00        1    92.37
  4149-79-80       RECT_CLOSED          3.40    13.60     0.92     4.00        1    51.50
  4149-78-79       RECT_CLOSED          3.40    13.60     0.92     4.00        1    35.35
  4149-77-78       RECT_CLOSED          3.00    12.00     0.86     4.00        1    57.61
  4148-46-56       CIRCULAR             1.65     2.14     0.41     1.65        1     4.91
  4148-43-44       CIRCULAR             1.65     2.14     0.41     1.65        1     3.07
  4148-42-43       CIRCULAR             1.20     1.13     0.30     1.20        1     0.91
  4148-41-42       CIRCULAR             1.20     1.13     0.30     1.20        1     3.12
  4147-06-4148-13  CIRCULAR             1.50     1.77     0.38     1.50        1    20.49
  4147-05-06       CIRCULAR             1.50     1.77     0.38     1.50        1     6.02
  4147-04-05       CIRCULAR             1.50     1.77     0.38     1.50        1    20.21
  4148-80-4147-06  CIRCULAR             1.20     1.13     0.30     1.20        1     2.34
  4149-70-71       CIRCULAR             1.80     2.54     0.45     1.80        1     6.65
  4149-69-70       CIRCULAR             1.80     2.54     0.45     1.80        1     1.82
  4149-62-63       RECT_CLOSED          1.80     4.50     0.52     2.50        1    10.04
  4149-40-41       CIRCULAR             1.00     0.79     0.25     1.00        1     1.38
  4149-64-65       RECT_CLOSED          2.00     4.80     0.55     2.40        1     9.83
  4149-61-62       RECT_CLOSED          1.64     3.61     0.47     2.20        1    10.05
  4149-F5-61       RECT_CLOSED          1.64     3.61     0.47     2.20        1     5.63
  4149-F4-56       RECT_CLOSED          1.66     3.45     0.46     2.08        1     0.36
  4148-63-4149-F4  RECT_CLOSED          1.68     3.36     0.46     2.00        1     8.01
  4149-74-75       RECT_CLOSED          2.50     9.00     0.74     3.60        1    31.40
  4149-68-69       CIRCULAR             1.65     2.14     0.41     1.65        1     5.33
  4149-65-71       RECT_CLOSED          2.10     5.25     0.57     2.50        1     8.14
  4149-50-62       CIRCULAR             1.00     0.79     0.25     1.00        1     2.28
  4149-44-62       CIRCULAR             1.20     1.13     0.30     1.20        1     6.31
  4149-41-42       CIRCULAR             1.20     1.13     0.30     1.20        1     1.45
  4149-60-F5       CIRCULAR             1.00     0.79     0.25     1.00        1     1.62
  4149-59-60       CIRCULAR             1.00     0.79     0.25     1.00        1     1.13
  4149-58-59       CIRCULAR             1.00     0.79     0.25     1.00        1     1.24
  4149-57-58       CIRCULAR             1.00     0.79     0.25     1.00        1     2.34
  4249-F3-4149-04  RECT_CLOSED          3.53    15.88     0.99     4.50        1   104.54
  4148-66-67       CIRCULAR             2.00     3.14     0.50     2.00        1     3.73
  4148-65-66       RECT_CLOSED          2.34     4.87     0.55     2.08        1    16.27
  4148-64-65       RECT_CLOSED          2.28     5.02     0.56     2.20        1    41.27
  4148-70-F4       CIRCULAR             2.00     3.14     0.50     2.00        1     7.59
  4148-69-70       CIRCULAR             2.00     3.14     0.50     2.00        1     4.79
  4148-68-69       CIRCULAR             2.00     3.14     0.50     2.00        1     3.25
  4148-67-68       CIRCULAR             2.00     3.14     0.50     2.00        1    10.04
  4148-F3-78       CIRCULAR             2.00     3.14     0.50     2.00        1     0.21
  4148-78-77       CIRCULAR             2.00     3.14     0.50     2.00        1    12.43
  4148-77-64       CIRCULAR             2.00     3.14     0.50     2.00        1    18.07
  4148-F4-71       RECT_CLOSED          2.34    13.57     0.83     5.80        1     3.69
  4147-44-45       RECT_CLOSED          2.00     3.90     0.49     1.95    