
  EPA STORM WATER MANAGEMENT MODEL - VERSION 5.2 (Build 5.2.2)
  ------------------------------------------------------------

  Zhonggang	drainage	system							 
  5yr24hr.	design	typhoon	rainfall						 
  Baoyi-Shijian-Zhonggang	drainage	system							 
  WARNING 04: minimum elevation drop used for Conduit 4335-10.1
  WARNING 04: minimum elevation drop used for Conduit 4435-818.1
  WARNING 04: minimum elevation drop used for Conduit 4435-822.1
  WARNING 04: minimum elevation drop used for Conduit 05640601.2
  WARNING 04: minimum elevation drop used for Conduit 05640604.1
  
  *************
  Element Count
  *************
  Number of rain gages ...... 1
  Number of subcatchments ... 94
  Number of nodes ........... 133
  Number of links ........... 139
  Number of pollutants ...... 0
  Number of land uses ....... 0
  
  
  ****************
  Raingage Summary
  ****************
                                                      Data       Recording
  Name                 Data Source                    Type       Interval 
  ------------------------------------------------------------------------
  GAGE1                HAIMA                          INTENSITY   60 min.
  
  
  ********************
  Subcatchment Summary
  ********************
  Name                       Area     Width   %Imperv    %Slope Rain Gage            Outlet              
  -----------------------------------------------------------------------------------------------------------
  1                          2.79    218.00     90.00    2.6000 GAGE1                4335-826            
  2                          0.27     68.00     90.00   31.8000 GAGE1                4335-824            
  3                          0.32     73.00     90.00    0.1000 GAGE1                4335-823            
  4                          1.70    170.00     90.00    0.1000 GAGE1                4335-829            
  5                          0.55     97.00     90.00    0.8000 GAGE1                4335-821            
  6                          0.44     87.00     90.00    0.8000 GAGE1                4335-820            
  7                          0.25     66.00     90.00    0.4000 GAGE1                4335-819            
  8                          0.28     69.00     90.00    0.7000 GAGE1                4335-818            
  9                          0.42     85.00     80.00    0.5000 GAGE1                4335-817            
  10                         0.84    119.00     90.00    1.7000 GAGE1                4335-12             
  13                         4.56    279.00     60.00    0.2000 GAGE1                4335-811            
  14                         0.47     89.00     90.00    0.6000 GAGE1                4335-830            
  15                        19.80    580.00     50.00    0.4000 GAGE1                4335-831            
  16                         0.63    104.00     80.00    0.7000 GAGE1                4335-828            
  17                         3.19    233.00     30.00   23.7000 GAGE1                4335-09             
  18                         1.35    152.00     50.00    0.4000 GAGE1                4335-07             
  19                         1.39    154.00     50.00    0.1000 GAGE1                4335-06             
  22                         2.26    196.00     50.00    0.2000 GAGE1                4335-03             
  23                         1.61    165.00     50.00    0.1000 GAGE1                4335-13             
  24                         4.90    289.00     90.00    0.3000 GAGE1                4435-833            
  25                         1.21    144.00     90.00    0.5000 GAGE1                4335-808            
  26                         0.26     66.00     90.00    1.1000 GAGE1                4335-807a           
  27                         0.25     65.00     80.00    1.0000 GAGE1                4335-08             
  28                         0.38     80.00     90.00    2.0000 GAGE1                4335-806            
  29                         0.44     86.00     90.00    0.7000 GAGE1                4335-805            
  30                         2.25    196.00     90.00    0.3000 GAGE1                4335-804            
  31                         0.64    105.00     90.00    0.6000 GAGE1                4335-02             
  32                         0.95    127.00     90.00    1.3000 GAGE1                4335-803            
  33                         1.09    136.00     90.00    1.2000 GAGE1                4335-801            
  34                         1.07    135.00     70.00    2.1000 GAGE1                4435-501            
  35                         0.50     92.00     90.00    2.9000 GAGE1                4435-510            
  36                         0.47     90.00     90.00    4.9000 GAGE1                4435-502            
  38                         1.77    173.00     90.00    0.7000 GAGE1                4334-809            
  39                         0.40     82.00     90.00    1.2000 GAGE1                4335-816            
  40                         0.09     38.00     80.00    3.3000 GAGE1                4335-815            
  41                         0.28     68.00     90.00    2.2000 GAGE1                4335-812            
  42                         0.16     52.00     90.00    4.4000 GAGE1                4335-813            
  43                         0.11     44.00     90.00    2.7000 GAGE1                4335-814            
  44                         1.08    135.00     90.00    0.8000 GAGE1                4434-33             
  45                         0.23     63.00     90.00    1.8000 GAGE1                4434-34             
  46                         0.37     79.00     90.00    0.8000 GAGE1                4434-32             
  47                         1.56    163.00     90.00    1.2000 GAGE1                4434-31             
  49                         5.79    314.00     90.00    0.1000 GAGE1                4435-831            
  50                         4.01    261.00     90.00    0.1000 GAGE1                4435-810            
  51                         1.29    148.00     90.00    0.4000 GAGE1                4435-830            
  52                         2.11    189.00     80.00    1.2000 GAGE1                4435-03             
  53                         1.65    168.00     90.00    0.9000 GAGE1                4435-04             
  54                         1.97    183.00     90.00    0.4000 GAGE1                4435-829            
  55                         1.22    144.00     90.00    0.4000 GAGE1                4435-05             
  56                         1.07    135.00     90.00    5.8000 GAGE1                4435-808            
  57                         0.32     74.00     90.00    2.1000 GAGE1                4435-807            
  58                         0.24     64.00     90.00    3.0000 GAGE1                4435-806            
  59                         0.17     54.00     30.00    1.4000 GAGE1                4435-811            
  60                         0.43     85.00     30.00    3.5000 GAGE1                4435-812            
  61                         8.61    383.00     80.00    0.2000 GAGE1                4435-814            
  62                         0.21     59.00     90.00    0.6000 GAGE1                4435-504            
  63                         1.86    178.00     90.00    0.2000 GAGE1                4435-503            
  64                         0.35     77.00     90.00    0.3000 GAGE1                4435-505            
  65                         0.12     46.00     90.00    2.4000 GAGE1                4435-805            
  66                         0.16     52.00     90.00    2.6000 GAGE1                4435-804            
  67                         0.13     47.00     90.00    0.7000 GAGE1                4435-803            
  68                         1.45    157.00     90.00    0.1000 GAGE1                4435-801            
  69                        14.52    497.00     30.00    0.1000 GAGE1                4536-04             
  70                         3.32    237.00     30.00    0.3000 GAGE1                4536-02             
  71                         4.81    286.00     30.00    0.5000 GAGE1                4536-01             
  107                        1.31    149.00     90.00    1.2000 GAGE1                4535-511            
  108                        0.59    100.00     90.00    0.9000 GAGE1                4535-512            
  109                        2.01    185.00     90.00    0.4000 GAGE1                4535-513            
  110                        6.37    329.00     90.00    0.5000 GAGE1                4535-514            
  111                        0.20     59.00     90.00    1.1000 GAGE1                4535-817            
  112                        0.33     75.00     90.00    0.7000 GAGE1                4535-818            
  113                        1.54    162.00     90.00    0.5000 GAGE1                4535-819            
  114                        3.39    240.00     90.00    1.2000 GAGE1                4535-821            
  115                        0.44     86.00     90.00    0.1000 GAGE1                4435-508            
  116                        0.25     65.00     90.00    0.6000 GAGE1                4435-817            
  117                        0.58     99.00     90.00    0.1000 GAGE1                4435-816            
  118                        0.22     61.00     90.00    0.2000 GAGE1                4435-815            
  119                        2.19    193.00     90.00    0.2000 GAGE1                4435-818            
  120                        0.24     64.00     90.00    0.6000 GAGE1                4435-507            
  121                        0.85    120.00     90.00    0.2000 GAGE1                4435-823            
  122                        0.91    124.00     30.00    0.1000 GAGE1                4435-824            
  123                        0.56     98.00     30.00    0.3000 GAGE1                4435-825            
  124                        2.49    206.00     30.00    0.1000 GAGE1                4435-826            
  125                        0.26     67.00     90.00    0.1000 GAGE1                4435-819            
  126                        0.18     55.00     90.00    0.2000 GAGE1                4435-820            
  127                        3.42    241.00     30.00    0.1000 GAGE1                4435-827            
  130                        0.91    124.00     90.00    0.2000 GAGE1                4235-810            
  131                        0.57     99.00     80.00    0.2000 GAGE1                4235-811            
  132                        0.32     74.00     80.00    0.1000 GAGE1                4335-835            
  133                        0.12     46.00     90.00    1.3000 GAGE1                4335-504            
  134                        1.79    174.00     90.00    0.6000 GAGE1                4335-505            
  135                        0.16     52.00     90.00    0.3000 GAGE1                4335-508            
  136                        0.11     44.00     90.00    0.2000 GAGE1                4335-507            
  187                        6.37     73.00     90.00    0.6000 GAGE1                POND3               
  
  
  ************
  Node Summary
  ************
                                           Invert      Max.    Ponded    External
  Name                 Type                 Elev.     Depth      Area    Inflow  
  -------------------------------------------------------------------------------
  4235-810             JUNCTION             13.88      1.76       0.0
  4235-811             JUNCTION             13.59      1.96       0.0
  4334-809             JUNCTION             13.37      1.61       0.0
  4335-01              JUNCTION             12.54      3.55       0.0
  4335-02              JUNCTION             12.40      3.30       0.0
  4335-03              JUNCTION             12.29      3.07       0.0
  4335-04              JUNCTION             12.24      3.22       0.0
  4335-05              JUNCTION             12.32      2.94       0.0
  4335-06              JUNCTION             12.02      2.95       0.0
  4335-07              JUNCTION             12.11      2.78       0.0
  4335-08              JUNCTION             11.88      2.82       0.0
  4335-09              JUNCTION             12.50      3.18       0.0
  4335-10              JUNCTION             11.90      2.10       0.0
  4335-11              JUNCTION             11.90      2.46       0.0
  4335-12              JUNCTION             11.10      3.03       0.0
  4335-13              JUNCTION             13.47      2.22       0.0
  4335-14              JUNCTION             13.00      2.70       0.0
  4335-504             JUNCTION             13.17      2.61       0.0
  4335-505             JUNCTION             13.00      3.03       0.0
  4335-506             JUNCTION             13.95      2.14       0.0
  4335-507             JUNCTION             13.95      2.12       0.0
  4335-508             JUNCTION             14.14      1.84       0.0
  4335-801             JUNCTION             11.94      2.99       0.0
  4335-802             JUNCTION             11.32      4.38       0.0
  4335-803             JUNCTION             12.42      3.69       0.0
  4335-804             JUNCTION             12.13      2.92       0.0
  4335-805             JUNCTION             11.82      2.94       0.0
  4335-806             JUNCTION             11.60      3.57       0.0
  4335-807             JUNCTION             12.60      2.21       0.0
  4335-807a            JUNCTION             12.50      2.31       0.0
  4335-808             JUNCTION             12.26      1.88       0.0
  4335-809             JUNCTION             11.27      2.61       0.0
  4335-811             JUNCTION             11.07      2.71       0.0
  4335-812             JUNCTION             13.79      1.56       0.0
  4335-813             JUNCTION             11.79      4.73       0.0
  4335-814             JUNCTION             12.84      4.73       0.0
  4335-815             JUNCTION             12.82      3.98       0.0
  4335-816             JUNCTION             12.49      2.54       0.0
  4335-817             JUNCTION             12.14      2.50       0.0
  4335-818             JUNCTION             11.79      2.56       0.0
  4335-819             JUNCTION             11.71      2.43       0.0
  4335-820             JUNCTION             11.54      2.43       0.0
  4335-821             JUNCTION             11.37      2.28       0.0
  4335-823             JUNCTION             11.42      2.99       0.0
  4335-824             JUNCTION             10.72      3.69       0.0
  4335-825             JUNCTION             10.96      2.74       0.0
  4335-826             JUNCTION             10.96      2.55       0.0
  4335-827             JUNCTION             12.32      3.22       0.0
  4335-828             JUNCTION             12.63      3.06       0.0
  4335-829             JUNCTION             12.49      3.17       0.0
  4335-830             JUNCTION             12.98      2.80       0.0
  4335-831             JUNCTION             13.36      2.44       0.0
  4335-835             JUNCTION             13.56      2.16       0.0
  4336-801             JUNCTION             14.06      1.56       0.0
  4434-31              JUNCTION             14.19      3.16       0.0
  4434-32              JUNCTION             14.08      2.45       0.0
  4434-33              JUNCTION             13.92      2.51       0.0
  4434-34              JUNCTION             13.82      2.12       0.0
  4435-03              JUNCTION             15.16      2.76       0.0
  4435-04              JUNCTION             14.91      2.22       0.0
  4435-05              JUNCTION             13.04      3.46       0.0
  4435-501             JUNCTION             17.32      2.15       0.0
  4435-502             JUNCTION             16.13      2.21       0.0
  4435-503             JUNCTION             14.65      1.85       0.0
  4435-504             JUNCTION             14.59      1.82       0.0
  4435-505             JUNCTION             14.47      1.79       0.0
  4435-506             JUNCTION             14.07      2.09       0.0
  4435-507             JUNCTION             14.85      2.22       0.0
  4435-508             JUNCTION             14.85      2.02       0.0
  4435-509             JUNCTION             14.89      1.92       0.0
  4435-510             JUNCTION             16.75      2.25       0.0
  4435-801             JUNCTION             17.11      4.46       0.0
  4435-802             JUNCTION             16.54      5.11       0.0
  4435-803             JUNCTION             16.22      5.53       0.0
  4435-804             JUNCTION             16.75      4.61       0.0
  4435-805             JUNCTION             16.17      3.90       0.0
  4435-806             JUNCTION             15.98      2.93       0.0
  4435-807             JUNCTION             13.76      2.94       0.0
  4435-808             JUNCTION             13.84      2.26       0.0
  4435-808a            JUNCTION             12.98      3.22       0.0
  4435-809             JUNCTION             12.95      2.42       0.0
  4435-810             JUNCTION             12.91      2.58       0.0
  4435-811             JUNCTION             13.62      2.64       0.0
  4435-812             JUNCTION             14.55      2.70       0.0
  4435-813             JUNCTION             14.37      3.17       0.0
  4435-814             JUNCTION             14.60      3.02       0.0
  4435-815             JUNCTION             14.21      2.56       0.0
  4435-816             JUNCTION             14.67      2.03       0.0
  4435-817             JUNCTION             14.86      1.93       0.0
  4435-818             JUNCTION             14.27      2.36       0.0
  4435-819             JUNCTION             14.27      2.32       0.0
  4435-820             JUNCTION             14.10      2.50       0.0
  4435-822             JUNCTION             13.89      3.03       0.0
  4435-823             JUNCTION             13.63      2.83       0.0
  4435-821             JUNCTION             14.01      2.69       0.0
  4435-824             JUNCTION             13.83      2.78       0.0
  4435-825             JUNCTION             14.08      2.36       0.0
  4435-826             JUNCTION             14.53      1.94       0.0
  4435-829             JUNCTION             13.78      2.93       0.0
  4435-830             JUNCTION             12.85      2.63       0.0
  4435-827             JUNCTION             14.56      1.93       0.0
  4435-831             JUNCTION             12.27      2.70       0.0
  4435-832             JUNCTION             13.74      1.88       0.0
  4435-833             JUNCTION             13.91      1.51       0.0
  4535-511             JUNCTION             17.50      2.02       0.0
  4535-512             JUNCTION             16.48      2.19       0.0
  4535-513             JUNCTION             16.28      1.86       0.0
  4535-514             JUNCTION             15.49      2.43       0.0
  4535-817             JUNCTION             14.83      3.03       0.0
  4535-818             JUNCTION             14.65      2.81       0.0
  4535-819             JUNCTION             14.54      2.36       0.0
  4535-820             JUNCTION             14.83      2.38       0.0
  4535-821             JUNCTION             14.82      2.43       0.0
  4535-822             JUNCTION             14.79      2.22       0.0
  4535-823             JUNCTION             14.83      2.27       0.0
  4535-F551            JUNCTION             15.81      2.19       0.0
  4536-01              JUNCTION             18.49      2.03       0.0
  4536-02              JUNCTION             17.52      3.56       0.0
  4536-03              JUNCTION             17.60      3.62       0.0
  4536-04              JUNCTION             17.13      4.37       0.0
  F4335-825a           JUNCTION             10.88      2.62       0.0
  F4335-825b           JUNCTION             11.22      2.78       0.0
  F4435-05a            JUNCTION             13.00      3.20       0.0
  F4435-816a           JUNCTION             14.24      2.46       0.0
  MH04649601           JUNCTION             12.44      4.39       0.0
  MH04649602           JUNCTION             12.09      4.85       0.0
  MH04649701           JUNCTION             12.74      3.49       0.0
  MH05640601           JUNCTION             10.72      5.28       0.0
  MH05640604           JUNCTION             14.70      2.15       0.0
  MH05640605           JUNCTION             11.70      5.50       0.0
  MH05647801           JUNCTION             12.81      2.39       0.0
  POND3                JUNCTION             10.25      6.60       0.0
  MH05640504           OUTFALL              14.70      1.52       0.0
  
  
  ************
  Link Summary
  ************
  Name             From Node        To Node          Type            Length    %Slope Roughness
  ---------------------------------------------------------------------------------------------
  4435-510.1       4435-510         4435-502         CONDUIT           23.0    2.5661    0.0150
  4435-505.1       4435-505         4435-506         CONDUIT           31.0    1.2904    0.0150
  4435-504.1       4435-504         4435-505         CONDUIT           26.0    0.6154    0.0150
  4435-503.1       4435-503         4435-504         CONDUIT           46.0    0.1304    0.0150
  4435-501.1       4435-501         4435-510         CONDUIT           22.0    2.5918    0.0150
  4335-02.1        4335-02          4335-03          CONDUIT           59.0    0.1864    0.0150
  4335-03.1        4335-03          4335-04          CONDUIT           54.0    0.0926    0.0150
  4335-04.1        4335-04          4335-05          CONDUIT           35.0   -0.2286    0.0150
  4335-05.1        4335-05          4335-06          CONDUIT           28.0    1.0715    0.0150
  4335-06.1        4335-06          4335-07          CONDUIT           56.0   -0.1607    0.0150
  4335-07.1        4335-07          4335-08          CONDUIT           52.0    0.4423    0.0150
  4335-10.1        4335-10          4335-11          CONDUIT          116.0    0.0003    0.0150
  4335-11.1        4335-11          4335-12          CONDUIT           36.0    1.2501    0.0150
  4335-13.1        4335-13          4335-14          CONDUIT           61.0    0.7705    0.0150
  4335-01.1        4335-01          4335-02          CONDUIT           76.0    0.1842    0.0150
  4434-31.1        4434-31          4434-32          CONDUIT           68.0    0.0882    0.0150
  4434-32.1        4434-32          4434-33          CONDUIT           12.0    1.3335    0.0150
  4434-33.1        4434-33          4434-34          CONDUIT           61.0    0.5246    0.0150
  4435-03.1        4435-03          4435-04          CONDUIT           64.0    0.3438    0.0150
  4435-04.1        4435-04          4435-05          CONDUIT           74.0    1.9058    0.0150
  4536-01.1        4536-01          4536-02          CONDUIT          112.0    0.8661    0.0150
  4536-02.1        4536-02          4536-03          CONDUIT           52.0   -0.3269    0.0150
  4536-03.1        4536-03          4536-04          CONDUIT           80.0    0.5875    0.0150
  4334-809.1       4334-809         4335-812         CONDUIT           55.0   -0.7637    0.0150
  4335-09.1        4335-09          4335-827         CONDUIT            9.0    1.1112    0.0150
  4335-12.1        4335-12          4335-826         CONDUIT           36.0    0.2222    0.0150
  4335-801.1       4335-801         4335-802         CONDUIT           65.0    0.9539    0.3000
  4335-802.1       4335-802         4335-803         CONDUIT           87.0   -1.2645    0.0150
  4335-803.1       4335-803         4335-804         CONDUIT           81.0    0.3580    0.0150
  4335-804.1       4335-804         4335-805         CONDUIT          101.0    0.3069    0.0150
  4335-805.1       4335-805         4335-806         CONDUIT           61.0   -2.1480    0.0150
  4335-806.1       4335-806         4335-807a        CONDUIT           18.0    0.3889    0.0150
  4335-808.1       4335-808         4335-809         CONDUIT           54.0    1.8336    0.0150
  4335-809.1       4335-809         4335-811         CONDUIT           19.0    1.0527    0.0150
  4335-811.1       4335-811         4335-825         CONDUIT           46.0    0.2391    0.0150
  4335-812.1       4335-812         4335-813         CONDUIT           54.0    3.7062    0.0150
  4335-813.1       4335-813         4335-814         CONDUIT           24.0   -4.3792    0.0150
  4335-814.1       4335-814         4335-815         CONDUIT           29.0    0.0690    0.0150
  4335-815.1       4335-815         4335-816         CONDUIT           54.0    0.6111    0.0150
  4335-816.1       4335-816         4335-817         CONDUIT           32.0    1.0938    0.0150
  4335-817.1       4335-817         4335-818         CONDUIT           55.0    0.6364    0.0150
  4335-818.1       4335-818         4335-819         CONDUIT           32.0    0.2500    0.0150
  4335-819.1       4335-819         4335-820         CONDUIT           42.0    0.4048    0.0150
  4335-820.1       4335-820         4335-821         CONDUIT           39.0    0.4359    0.0150
  4335-823.1       4335-823         4335-824         CONDUIT           59.0    1.1865    0.0150
  4335-826.1       4335-826         F4335-825a       CONDUIT            7.0    1.1429    0.0150
  4335-827.1       4335-827         4335-806         CONDUIT           36.0   -2.5286    0.0150
  4335-828.1       4335-828         4335-827         CONDUIT           22.0    1.3183    0.0150
  4335-829.1       4335-829         4335-828         CONDUIT           54.0   -0.3148    0.0150
  4335-830.1       4335-830         4335-829         CONDUIT           19.0    2.4744    0.0150
  4335-831.1       4335-831         4335-830         CONDUIT            5.0    4.8055    0.0150
  4336-801.1       4336-801         4435-833         CONDUIT           62.0    0.2419    0.0150
  4435-801.1       4435-801         4435-802         CONDUIT           71.0    1.2114    0.0150
  4435-802.1       4435-802         4435-803         CONDUIT           53.0    0.6038    0.0150
  4435-803.1       4435-803         4435-804         CONDUIT           58.0    0.0172    0.0150
  4435-804.1       4435-804         4435-805         CONDUIT           50.0    1.0401    0.0150
  4435-805.1       4435-805         4435-806         CONDUIT           48.0    0.1250    0.0150
  4435-806.1       4435-806         4435-807         CONDUIT           73.0    3.0425    0.0150
  4435-809.1       4435-809         4435-810         CONDUIT           74.0    0.0541    0.0015
  4435-811.1       4435-811         4435-810         CONDUIT           54.0    0.0185    0.0150
  4435-812.1       4435-812         4435-811         CONDUIT           28.0    3.3233    0.0150
  4435-813.1       4435-813         4435-812         CONDUIT           68.0   -0.2647    0.0150
  4435-814.1       4435-814         4435-813         CONDUIT           46.0    0.5000    0.0150
  4435-829.1       4435-829         4435-05          CONDUIT           56.0   -0.0536    0.0150
  4435-831.1       4435-831         4335-801         CONDUIT           60.0    0.5500    0.3000
  4435-833.1       4435-833         4435-832         CONDUIT           62.0    0.2742    0.0150
  4536-04.1        4536-04          4435-801         CONDUIT           73.0    0.4110    0.0150
  4335-08.1        4335-08          4335-806         CONDUIT           48.0    0.5833    0.0150
  4435-830.1       4435-830         MH05647801       CONDUIT           64.0    0.0625    0.3000
  4435-05.1        4435-05          F4435-05a        CONDUIT           74.0    0.0541    0.0015
  F4435-05a.1      F4435-05a        4435-808a        CONDUIT           23.0    0.0870    0.0015
  4435-807.1       4435-807         F4435-05a        CONDUIT           24.0    2.1672    0.0150
  4435-808a.1      4435-808a        4435-809         CONDUIT           58.0    0.0517    0.0015
  4435-808.1       4435-808         4435-808a        CONDUIT            2.0    2.0004    0.0150
  4435-506.1       4435-506         4435-808         CONDUIT           11.0    2.0914    0.0150
  4335-807.1       4335-807         4335-807a        CONDUIT            8.0    1.2501    0.0150
  4335-807a.1      4335-807a        4335-808         CONDUIT           62.0    0.3871    0.0150
  4335-821.1       4335-821         F4335-825b       CONDUIT           45.0    0.3333    0.0150
  F4335-825b.1     F4335-825b       4335-823         CONDUIT           13.0   -1.5386    0.0150
  F4335-825a.1     F4335-825a       F4335-825b       CONDUIT           11.0   -1.4547    0.0150
  4335-825.1       4335-825         F4335-825a       CONDUIT           10.0   -1.0001    0.0150
  4434-34.1        4434-34          4334-809         CONDUIT           54.0    0.8334    0.0150
  4335-14.1        4335-14          4335-02          CONDUIT           13.0    1.5386    0.0150
  4435-810.1       4435-810         4435-830         CONDUIT           99.0    0.0606    0.0150
  4435-502.1       4435-502         4335-801         CONDUIT           70.0    5.9965    0.0150
  4335-09.2        4335-09          4335-10          CONDUIT            7.0    8.6031    0.0150
  4535-F551.1      4535-F551        4535-514         CONDUIT           23.0    1.3914    0.0150
  4535-513.1       4535-513         4535-F551        CONDUIT           33.0    1.4244    0.0150
  4535-512.1       4535-512         4535-513         CONDUIT           60.0    0.2667    0.0150
  4535-511.1       4535-511         4535-512         CONDUIT           68.0    1.3972    0.0150
  4435-508.1       4435-508         4435-509         CONDUIT           43.0   -0.9070    0.3000
  4435-507.1       4435-507         4535-823         CONDUIT           38.0    0.0526    0.0150
  4435-507.2       4435-507         4435-508         CONDUIT           36.0    1.4446    0.3000
  4435-509.1       4435-509         4435-817         CONDUIT           31.0    0.0968    0.3000
  4435-815.1       4435-815         F4435-816a       CONDUIT           43.0   -0.0698    0.3000
  4435-817.1       4435-817         4435-816         CONDUIT           15.0    1.2668    0.3000
  4435-818.1       4435-818         4435-819         CONDUIT           17.0    0.0018    0.3000
  4435-819.1       4435-819         4435-820         CONDUIT           49.0    0.3469    0.3000
  4435-823.1       4435-823         4435-824         CONDUIT           63.0   -0.3175    0.0150
  4535-817.1       4535-817         4535-818         CONDUIT           35.0    0.5143    0.3000
  4535-818.1       4535-818         4535-819         CONDUIT           84.0    0.1310    0.3000
  4535-819.1       4535-819         4435-815         CONDUIT           24.0    1.3751    0.3000
  4535-820.1       4535-820         4535-821         CONDUIT           14.0    0.0714    0.0150
  4535-821.1       4535-821         4535-822         CONDUIT           20.0    0.1500    0.0150
  4535-822.1       4535-822         4435-823         CONDUIT          124.0    0.9355    0.0150
  4535-823.1       4535-823         4535-822         CONDUIT           17.0    0.2353    0.0150
  F4435-816a.1     F4435-816a       4435-818         CONDUIT           58.0   -0.0517    0.3000
  4435-816.1       4435-816         F4435-816a       CONDUIT            4.0    4.2538    0.3000
  4535-514.1       4535-514         4535-820         CONDUIT          134.0    0.4925    0.0150
  4235-810.1       4235-810         4235-811         CONDUIT           46.0    0.6304    0.0150
  4235-811.1       4235-811         4335-835         CONDUIT           97.0    0.0309    0.0150
  4335-835.1       4335-835         4335-504         CONDUIT           87.0    0.4598    0.0150
  4335-504.1       4335-504         4335-505         CONDUIT           19.0    0.8948    0.0150
  4335-506.1       4335-506         4335-505         CONDUIT           34.0    1.3236    0.0150
  4335-507.1       4335-507         4335-506         CONDUIT            9.0   -1.2223    0.0150
  4335-508.1       4335-508         4335-507         CONDUIT           31.0    0.2258    0.0150
  4435-820.1       4435-820         4435-821         CONDUIT           54.0    0.1667    0.3000
  4435-822.1       4435-822         4435-829         CONDUIT           68.0    0.0004    0.0150
  4335-824.1       4335-824         MH05640601       CONDUIT            5.0  -13.5219    0.0150
  05640601.2       MH05640601       POND3            CONDUIT            5.0    0.0061    0.0150
  05640604.1       MH05640604       MH05640504       CONDUIT           25.0    0.0012    0.0030
  4435-821.1       4435-821         4435-822         CONDUIT           40.0    0.3000    0.3000
  4435-824.1       4435-824         4435-829         CONDUIT           99.0    0.0505    0.0150
  4435-827.1       4435-827         4435-826         CONDUIT           55.0    0.0545    0.0015
  4435-826.1       4435-826         4435-825         CONDUIT           48.0    0.9375    0.0015
  4435-825.1       4435-825         4435-824         CONDUIT           68.0    0.3676    0.0015
  05647801.1       MH05647801       4435-831         CONDUIT           57.0    0.0526    0.3000
  4435-832.1       4435-832         4335-13          CONDUIT          127.0    0.2126    0.0150
  4335-505.1       4335-505         MH04649701       CONDUIT           32.0    0.8125    0.0150
  04649701.1       MH04649701       MH04649601       CONDUIT           38.0    0.7895    0.0150
  04649601.1       MH04649601       MH04649602       CONDUIT           45.0    0.7778    0.0150
  04649602.1       MH04649602       MH05640605       CONDUIT           49.0    0.7959    0.0150
  05640605.1       MH05640605       MH05640601       CONDUIT           39.0    0.7949    0.0150
  4335-802.2       4335-802         4335-01          CONDUIT           37.0   -3.2991    0.0150
  PUMP1@POND3-MH05640604 POND3            MH05640604       TYPE3 PUMP  
  PUMP2@POND3-MH05640604 POND3            MH05640604       TYPE3 PUMP  
  PUMP3@POND3-MH05640604 POND3            MH05640604       TYPE3 PUMP  
  PUMP4@POND3-MH05640604 POND3            MH05640604       TYPE3 PUMP  
  PUMP5@F4335-825a-4335-823 F4335-825a       4335-823         TYPE3 PUMP  
  
  
  *********************
  Cross Section Summary
  *********************
                                        Full     Full     Hyd.     Max.   No. of     Full
  Conduit          Shape               Depth     Area     Rad.    Width  Barrels     Flow
  ---------------------------------------------------------------------------------------
  4435-510.1       CIRCULAR             1.00     0.79     0.25     1.00        1     3.33
  4435-505.1       CIRCULAR             1.00     0.79     0.25     1.00        1     2.36
  4435-504.1       CIRCULAR             1.00     0.79     0.25     1.00        1     1.63
  4435-503.1       CIRCULAR             1.00     0.79     0.25     1.00        1     0.75
  4435-501.1       CIRCULAR             1.00     0.79     0.25     1.00        1     3.35
  4335-02.1        RECT_CLOSED          2.09     9.07     0.71     4.34        1    20.69
  4335-03.1        RECT_CLOSED          2.09     9.84     0.72     4.71        1    16.10
  4335-04.1        RECT_CLOSED          2.08     9.80     0.72     4.71        1    25.12
  4335-05.1        RECT_CLOSED          2.14    10.06     0.74     4.70        1    56.55
  4335-06.1        RECT_CLOSED          2.16    10.15     0.74     4.70        1    22.20
  4335-07.1        RECT_CLOSED          2.12    10.13     0.73     4.78        1    36.58
  4335-10.1        RECT_CLOSED          2.00     4.56     0.53     2.28        1     0.32
  4335-11.1        RECT_CLOSED          1.98     6.24     0.61     3.15        1    33.37
  4335-13.1        RECT_CLOSED          1.23     2.25     0.37     1.83        1     6.76
  4335-01.1        RECT_CLOSED          2.07     8.67     0.69     4.19        1    19.43
  4434-31.1        CIRCULAR             1.20     1.13     0.30     1.20        1     1.00
  4434-32.1        CIRCULAR             1.20     1.13     0.30     1.20        1     3.90
  4434-33.1        CIRCULAR             1.20     1.13     0.30     1.20        1     2.45
  4435-03.1        CIRCULAR             1.50     1.77     0.38     1.50        1     3.59
  4435-04.1        RECT_CLOSED          1.87     5.67     0.58     3.03        1    36.20
  4536-01.1        CIRCULAR             1.20     1.13     0.30     1.20        1     3.15
  4536-02.1        CIRCULAR             1.20     1.13     0.30     1.20        1     1.93
  4536-03.1        CIRCULAR             1.50     1.77     0.38     1.50        1     4.70
  4334-809.1       RECT_CLOSED          1.30     3.25     0.43     2.50        1    10.75
  4335-09.1        CIRCULAR             1.35     1.43     0.34     1.35        1     4.88
  4335-12.1        RECT_CLOSED          2.00     5.00     0.56     2.50        1    10.62
  4335-801.1       RECT_CLOSED          1.70     9.35     0.65     5.50        1     2.28
  4335-802.1       RECT_CLOSED          1.70    10.71     0.67     6.30        1    61.45
  4335-803.1       RECT_CLOSED          1.70    10.71     0.67     6.30        1    32.70
  4335-804.1       RECT_CLOSED          1.70    10.88     0.67     6.40        1    30.82
  4335-805.1       RECT_CLOSED          1.65    10.48     0.65     6.35        1    77.21
  4335-806.1       RECT_CLOSED          1.65     8.58     0.63     5.20        1    26.12
  4335-808.1       RECT_CLOSED          1.65     8.58     0.63     5.20        1    56.71
  4335-809.1       RECT_CLOSED          2.00     6.80     0.63     3.40        1    34.17
  4335-811.1       RECT_CLOSED          2.10     6.30     0.62     3.00        1    14.90
  4335-812.1       RECT_CLOSED          1.50     3.60     0.46     2.40        1    27.60
  4335-813.1       RECT_CLOSED          1.50     3.90     0.48     2.60        1    33.16
  4335-814.1       RECT_CLOSED          1.50     4.05     0.48     2.70        1     4.36
  4335-815.1       RECT_CLOSED          1.50     4.05     0.48     2.70        1    12.98
  4335-816.1       RECT_CLOSED          2.00     6.00     0.60     3.00        1    29.76
  4335-817.1       RECT_CLOSED          2.00     6.20     0.61     3.10        1    23.66
  4335-818.1       RECT_CLOSED          2.00     6.20     0.61     3.10        1    14.83
  4335-819.1       RECT_CLOSED          2.00     6.20     0.61     3.10        1    18.87
  4335-820.1       RECT_CLOSED          2.10     9.45     0.72     4.50        1    33.29
  4335-823.1       RECT_CLOSED          2.60    11.44     0.82     4.40        1    72.62
  4335-826.1       RECT_CLOSED          2.00     5.00     0.56     2.50        1    24.09
  4335-827.1       CIRCULAR             1.35     1.43     0.34     1.35        1     7.36
  4335-828.1       CIRCULAR             1.35     1.43     0.34     1.35        1     5.31
  4335-829.1       CIRCULAR             1.35     1.43     0.34     1.35        1     2.60
  4335-830.1       CIRCULAR             1.35     1.43     0.34     1.35        1     7.28
  4335-831.1       CIRCULAR             1.35     1.43     0.34     1.35        1    10.14
  4336-801.1       RECT_CLOSED          1.10     1.76     0.33     1.60        1     2.73
  4435-801.1       CIRCULAR             1.50     1.77     0.38     1.50        1     6.74
  4435-802.1       CIRCULAR             1.50     1.77     0.38     1.50        1     4.76
  4435-803.1       CIRCULAR             1.50     1.77     0.38     1.50        1     0.80
  4435-804.1       CIRCULAR             1.50     1.77     0.38     1.50        1     6.25
  4435-805.1       CIRCULAR             1.50     1.77     0.38     1.50        1     2.17
  4435-806.1       CIRCULAR             1.50     1.77     0.38     1.50        1    10.69
  4435-809.1       RECT_CLOSED          1.70     6.46     0.59     3.80        1    70.23
  4435-811.1       RECT_CLOSED          1.40     4.20     0.48     3.00        1     2.33
  4435-812.1       RECT_CLOSED          1.50     4.50     0.50     3.00        1    34.46
  4435-813.1       RECT_CLOSED          1.50     4.50     0.50     3.00        1     9.72
  4435-814.1       RECT_CLOSED          1.50     4.50     0.50     3.00        1    13.37
  4435-829.1       CIRCULAR             1.70     2.27     0.42     1.70        1     1.98
  4435-831.1       RECT_CLOSED          1.70     7.48     0.61     4.40        1     1.33
  4435-833.1       RECT_CLOSED          1.10     1.76     0.33     1.60        1     2.91
  4536-04.1        CIRCULAR             1.50     1.77     0.38     1.50        1     3.93
  4335-08.1        RECT_CLOSED          2.12    10.13     0.73     4.78        1    42.00
  4435-830.1       RECT_CLOSED          1.70     6.46     0.59     3.80        1     0.38
  4435-05.1        RECT_CLOSED          1.70     6.46     0.59     3.80        1    70.23
  F4435-05a.1      RECT_CLOSED          1.70     6.46     0.59     3.80        1    89.08
  4435-807.1       CIRCULAR             1.50     1.77     0.38     1.50        1     9.02
  4435-808a.1      RECT_CLOSED          1.70     6.46     0.59     3.80        1    68.70
  4435-808.1       CIRCULAR             1.00     0.79     0.25     1.00        1     2.94
  4435-506.1       CIRCULAR             1.00     0.79     0.25     1.00        1     3.01
  4335-807.1       CIRCULAR             1.00     0.79     0.25     1.00        1     2.32
  4335-807a.1      RECT_CLOSED          1.65     8.58     0.63     5.20        1    26.05
  4335-821.1       RECT_CLOSED          2.10     9.45     0.72     4.50        1    29.11
  F4335-825b.1     RECT_CLOSED          2.00     5.00     0.56     2.50        1    27.95
  F4335-825a.1     RECT_CLOSED          2.00     5.00     0.56     2.50        1    27.17
  4335-825.1       RECT_CLOSED          2.10     6.30     0.62     3.00        1    30.47
  4434-34.1        CIRCULAR             1.20     1.13     0.30     1.20        1     3.09
  4335-14.1        RECT_CLOSED          1.23     2.25     0.37     1.83        1     9.56
  4435-810.1       RECT_CLOSED          1.70     6.46     0.59     3.80        1     7.44
  4435-502.1       CIRCULAR             1.00     0.79     0.25     1.00        1     5.09
  4335-09.2        RECT_CLOSED          2.00     4.56     0.53     2.28        1    58.60
  4535-F551.1      CIRCULAR             1.30     1.33     0.33     1.30        1     4.93
  4535-513.1       CIRCULAR             1.30     1.33     0.33     1.30        1     4.99
  4535-512.1       CIRCULAR             1.00     0.79     0.25     1.00        1     1.07
  4535-511.1       CIRCULAR             1.00     0.79     0.25     1.00        1     2.46
  4435-508.1       CIRCULAR             0.90     0.64     0.23     0.90        1     0.07
  4435-507.1       CIRCULAR             1.30     1.33     0.33     1.30        1     0.96
  4435-507.2       CIRCULAR             1.30     1.33     0.33     1.30        1     0.25
  4435-509.1       CIRCULAR             1.20     1.13     0.30     1.20        1     0.05
  4435-815.1       CIRCULAR             1.50     1.77     0.38     1.50        1     0.08
  4435-817.1       CIRCULAR             1.20     1.13     0.30     1.20        1     0.19
  4435-818.1       CIRCULAR             1.50     1.77     0.38     1.50        1     0.01
  4435-819.1       CIRCULAR             1.70     2.27     0.42     1.70        1     0.25
  4435-823.1       CIRCULAR             1.70     2.27     0.42     1.70        1     4.82
  4535-817.1       CIRCULAR             1.20     1.13     0.30     1.20        1     0.12
  4535-818.1       CIRCULAR             1.40     1.54     0.35     1.40        1     0.09
  4535-819.1       CIRCULAR             1.40     1.54     0.35     1.40        1     0.30
  4535-820.1       CIRCULAR             1.40     1.54     0.35     1.40        1     1.36
  4535-821.1       CIRCULAR             1.40     1.54     0.35     1.40        1     1.97
  4535-822.1       CIRCULAR             1.70     2.27     0.42     1.70        1     8.27
  4535-823.1       CIRCULAR             1.30     1.33     0.33     1.30        1     2.03
  F4435-816a.1     CIRCULAR             1.50     1.77     0.38     1.50        1     0.07
  4435-816.1       CIRCULAR             1.20     1.13     0.30     1.20        1     0.35
  4535-514.1       CIRCULAR             1.30     1.33     0.33     1.30        1     2.94
  4235-810.1       CIRCULAR             1.20     1.13     0.30     1.20        1     2.68
  4235-811.1       CIRCULAR             1.20     1.13     0.30     1.20        1     0.59
  4335-835.1       CIRCULAR             1.20     1.13     0.30     1.20        1     2.29
  4335-504.1       CIRCULAR             1.20     1.13     0.30     1.20        1     3.20
  4335-506.1       CIRCULAR             1.00     0.79     0.25     1.00        1     2.39
  4335-507.1       CIRCULAR             1.00     0.79     0.25     1.00        1     2.30
  4335-508.1       CIRCULAR             1.00     0.79     0.25     1.00        1     0.99
  4435-820.1       CIRCULAR             1.70     2.27     0.42     1.70        1     0.17
  4435-822.1       CIRCULAR             1.70     2.27     0.42     1.70        1     0.18
  4335-824.1       RECT_CLOSED          2.60    11.44     0.82     4.40        1   245.17
  05640601.2       RECT_CLOSED          2.60    11.44     0.82     4.40        1     5.21
  05640604.1       CIRCULAR             1.52     1.81     0.38     1.52        1     1.11
  4435-821.1       CIRCULAR             1.70     2.27     0.42     1.70        1     0.23
  4435-824.1       CIRCULAR             1.80     2.54     0.45     1.80        1     2.24
  4435-827.1       CIRCULAR             1.40     1.54     0.35     1.40        1    11.91
  4435-826.1       CIRCULAR             1.50     1.77     0.38     1.50        1    59.33
  4435-825.1       CIRCULAR             1.70     2.27     0.42     1.70        1    51.87
  05647801.1       RECT_CLOSED          1.70     6.46     0.59     3.80        1     0.35
  4435-832.1       RECT_CLOSED          1.10     1.76     0.33     1.60        1     2.56
  4335-505.1       CIRCULAR             1.20     1.13     0.30     1.20        1     3.05
  04649701.1       CIRCULAR             1.20     1.13     0.30     1.20        1     3.00
  04649601.1       CIRCULAR             1.20     1.13     0.30     1.20        1     2.98
  04649602.1       CIRCULAR             1.20     1.13     0.30     1.20        1     3.02
  05640605.1       CIRCULAR             1.20     1.13     0.30     1.20        1     3.01
  4335-802.2       RECT_CLOSED          2.07     8.67     0.69     4.19        1    82.24
  
  
  ****************
  Analysis Options
  ****************
  Flow Units ............... CMS
  Process Models:
    Rainfall/Runoff ........ YES
    RDII ................... NO
    Snowmelt ............... NO
    Groundwater ............ NO
    Flow Routing ........... YES
    Ponding Allowed ........ NO
    Water Quality .......... NO
  Infiltration Method ...... HORTON
  Flow Routing Method ...... DYNWAVE
  Surcharge Method ......... EXTRAN
  Starting Date ............ 09/10/2004 16:39:00
  Ending Date .............. 09/11/2004 14:39:00
  Antecedent Dry Days ...... 0.0
  Report Time Step ......... 01:00:00
  Wet Time Step ............ 00:01:00
  Dry Time Step ............ 00:01:00
  Routing Time Step ........ 10.00 sec
  Variable Time Step ....... YES
  Maximum Trials ........... 8
  Number of Threads ........ 1
  Head Tolerance ........... 0.001500 m
  
  
  **************************        Volume         Depth
  Runoff Quantity Continuity     hectare-m            mm
  **************************     ---------       -------
  Total Precipitation ......        55.285       349.750
  Evaporation Loss .........         0.000         0.000
  Infiltration Loss ........        10.207        64.572
  Surface Runoff ...........        45.035       284.904
  Final Storage ............         0.046         0.290
  Continuity Error (%) .....        -0.005
  
  
  **************************        Volume        Volume
  Flow Routing Continuity        hectare-m      10^6 ltr
  **************************     ---------     ---------
  Dry Weather Inflow .......         0.000         0.000
  Wet Weather Inflow .......        45.035       450.353
  Groundwater Inflow .......         0.000         0.000
  RDII Inflow ..............         0.000         0.000
  External Inflow ..........         0.031         0.307
  External Outflow .........         0.956         9.557
  Flooding Loss ............        42.834       428.347
  Evaporation Loss .........         0.000         0.000
  Exfiltration Loss ........         0.000         0.000
  Initial Stored Volume ....         0.001         0.014
  Final Stored Volume ......         1.328        13.285
  Continuity Error (%) .....        -0.114
  
  
  *************************
  Highest Continuity Errors
  *************************
  Node 4335-805 (2.18%)
  Node 4335-804 (1.98%)
  Node 4434-32 (-1.79%)
  Node 4335-824 (1.14%)
  Node 4335-802 (1.02%)
  
  
  ***************************
  Time-Step Critical Elements
  ***************************
  Link 4335-831.1 (43.97%)
  Link 4435-808.1 (36.93%)
  Link 4335-09.2 (11.48%)
  Link 4335-824.1 (4.49%)
  Link 4435-816.1 (2.23%)
  
  
  ********************************
  Highest Flow Instability Indexes
  ********************************
  Link 05640601.2 (71)
  Link 4435-808.1 (46)
  Link 4335-824.1 (44)
  Link 4435-506.1 (30)
  Link F4435-05a.1 (29)
  
  
  *********************************
  Most Frequent Nonconverging Nodes
  *********************************
  Node MH05640504 (12.95%)
  Node MH04649601 (4.33%)
  Node MH04649602 (3.90%)
  Node MH05640605 (3.09%)
  Node 4335-821 (2.95%)
  
  
  *************************
  Routing Time Step Summary
  *************************
  Minimum Time Step           :     0.50 sec
  Average Time Step           :     0.83 sec
  Maximum Time Step           :    10.00 sec
  % of Time in Steady State   :     0.00
  Average Iterations per Step :     3.40
  % of Steps Not Converging   :    12.95
  Time Step Frequencies       :
     10.000 -  5.493 sec      :     0.00 %
      5.493 -  3.017 sec      :     0.00 %
      3.017 -  1.657 sec      :     0.05 %
      1.657 -  0.910 sec      :    29.77 %
      0.910 -  0.500 sec      :    70.17 %
  
  
  ***************************
  Subcatchment Runoff Summary
  ***************************
  
  ------------------------------------------------------------------------------------------------------------------------------
                            Total      Total      Total      Total     Imperv       Perv      Total       Total     Peak  Runoff
                           Precip      Runon       Evap      Infil     Runoff     Runoff     Runoff      Runoff   Runoff   Coeff
  Subcatchment                 mm         mm         mm         mm         mm         mm         mm    10^6 ltr      CMS
  ------------------------------------------------------------------------------------------------------------------------------
  1                        349.75       0.00       0.00      20.38     314.69      14.60     329.29        9.19     0.50   0.942
  2                        349.75       0.00       0.00      20.37     314.85      14.61     329.47        0.89     0.05   0.942
  3                        349.75       0.00       0.00      20.38     314.60      14.59     329.19        1.05     0.06   0.941
  4                        349.75       0.00       0.00      20.40     314.34      14.58     328.92        5.59     0.30   0.940
  5                        349.75       0.00       0.00      20.38     314.72      14.60     329.32        1.81     0.10   0.942
  6                        349.75       0.00       0.00      20.38     314.73      14.60     329.33        1.45     0.08   0.942
  7                        349.75       0.00       0.00      20.38     314.72      14.60     329.33        0.82     0.04   0.942
  8                        349.75       0.00       0.00      20.37     314.74      14.60     329.35        0.92     0.05   0.942
  9                        349.75       0.00       0.00      40.77     279.75      29.19     308.94        1.30     0.07   0.883
  10                       349.75       0.00       0.00      20.38     314.73      14.60     329.34        2.77     0.15   0.942
  13                       349.75       0.00       0.00      82.05     209.63      57.85     267.48       12.20     0.76   0.765
  14                       349.75       0.00       0.00      20.38     314.71      14.60     329.31        1.55     0.08   0.942
  15                       349.75       0.00       0.00     103.08     174.65      71.80     246.45       48.80     3.19   0.705
  16                       349.75       0.00       0.00      40.77     279.75      29.19     308.93        1.95     0.11   0.883
  17                       349.75       0.00       0.00     142.72     104.95     102.12     207.07        6.61     0.50   0.592
  18                       349.75       0.00       0.00     102.21     174.83      72.67     247.50        3.34     0.22   0.708
  19                       349.75       0.00       0.00     102.55     174.76      72.33     247.09        3.43     0.23   0.706
  22                       349.75       0.00       0.00     102.49     174.77      72.39     247.16        5.59     0.37   0.707
  23                       349.75       0.00       0.00     102.60     174.75      72.28     247.03        3.98     0.26   0.706
  24                       349.75       0.00       0.00      20.40     314.35      14.58     328.93       16.12     0.87   0.940
  25                       349.75       0.00       0.00      20.38     314.63      14.60     329.22        3.98     0.22   0.941
  26                       349.75       0.00       0.00      20.37     314.76      14.61     329.37        0.86     0.05   0.942
  27                       349.75       0.00       0.00      40.75     279.80      29.20     309.00        0.77     0.04   0.883
  28                       349.75       0.00       0.00      20.37     314.77      14.61     329.38        1.25     0.07   0.942
  29                       349.75       0.00       0.00      20.38     314.72      14.60     329.32        1.45     0.08   0.942
  30                       349.75       0.00       0.00      20.39     314.49      14.59     329.08        7.40     0.40   0.941
  31                       349.75       0.00       0.00      20.38     314.69      14.60     329.29        2.11     0.11   0.942
  32                       349.75       0.00       0.00      20.38     314.71      14.60     329.31        3.13     0.17   0.942
  33                       349.75       0.00       0.00      20.38     314.70      14.60     329.30        3.59     0.19   0.942
  34                       349.75       0.00       0.00      61.16     244.81      43.78     288.58        3.09     0.18   0.825
  35                       349.75       0.00       0.00      20.37     314.77      14.61     329.38        1.65     0.09   0.942
  36                       349.75       0.00       0.00      20.37     314.79      14.61     329.40        1.55     0.08   0.942
  38                       349.75       0.00       0.00      20.38     314.62      14.60     329.22        5.83     0.32   0.941
  39                       349.75       0.00       0.00      20.37     314.75      14.61     329.36        1.32     0.07   0.942
  40                       349.75       0.00       0.00      40.75     279.85      29.22     309.07        0.28     0.02   0.884
  41                       349.75       0.00       0.00      20.37     314.78      14.61     329.39        0.92     0.05   0.942
  42                       349.75       0.00       0.00      20.37     314.82      14.61     329.43        0.53     0.03   0.942
  43                       349.75       0.00       0.00      20.37     314.82      14.61     329.43        0.36     0.02   0.942
  44                       349.75       0.00       0.00      20.38     314.67      14.60     329.27        3.56     0.19   0.941
  45                       349.75       0.00       0.00      20.37     314.79      14.61     329.39        0.76     0.04   0.942
  46                       349.75       0.00       0.00      20.38     314.74      14.60     329.34        1.22     0.07   0.942
  47                       349.75       0.00       0.00      20.38     314.68      14.60     329.28        5.14     0.28   0.941
  49                       349.75       0.00       0.00      20.43     313.98      14.55     328.52       19.02     1.03   0.939
  50                       349.75       0.00       0.00      20.42     314.11      14.56     328.67       13.18     0.71   0.940
  51                       349.75       0.00       0.00      20.38     314.60      14.59     329.19        4.25     0.23   0.941
  52                       349.75       0.00       0.00      40.78     279.71      29.18     308.88        6.52     0.37   0.883
  53                       349.75       0.00       0.00      20.38     314.65      14.60     329.25        5.43     0.29   0.941
  54                       349.75       0.00       0.00      20.39     314.55      14.59     329.14        6.48     0.35   0.941
  55                       349.75       0.00       0.00      20.38     314.60      14.60     329.20        4.02     0.22   0.941
  56                       349.75       0.00       0.00      20.37     314.77      14.61     329.38        3.52     0.19   0.942
  57                       349.75       0.00       0.00      20.37     314.78      14.61     329.39        1.05     0.06   0.942
  58                       349.75       0.00       0.00      20.37     314.80      14.61     329.41        0.79     0.04   0.942
  59                       349.75       0.00       0.00     142.71     104.95     102.13     207.07        0.35     0.03   0.592
  60                       349.75       0.00       0.00     142.72     104.95     102.13     207.07        0.89     0.07   0.592
  61                       349.75       0.00       0.00      40.94     279.26      29.01     308.27       26.54     1.50   0.881
  62                       349.75       0.00       0.00      20.37     314.75      14.61     329.35        0.69     0.04   0.942
  63                       349.75       0.00       0.00      20.39     314.46      14.58     329.04        6.12     0.33   0.941
  64                       349.75       0.00       0.00      20.38     314.68      14.60     329.28        1.15     0.06   0.941
  65                       349.75       0.00       0.00      20.37     314.81      14.61     329.42        0.40     0.02   0.942
  66                       349.75       0.00       0.00      20.37     314.81      14.61     329.42        0.53     0.03   0.942
  67                       349.75       0.00       0.00      20.37     314.77      14.61     329.38        0.43     0.02   0.942
  68                       349.75       0.00       0.00      20.40     314.38      14.58     328.95        4.77     0.26   0.941
  69                       349.75       0.00       0.00     146.53     104.78      98.30     203.08       29.49     2.07   0.581
  70                       349.75       0.00       0.00     143.79     104.89     101.04     205.94        6.84     0.52   0.589
  71                       349.75       0.00       0.00     143.71     104.90     101.12     206.01        9.91     0.75   0.589
  107                      349.75       0.00       0.00      20.38     314.69      14.60     329.29        4.31     0.23   0.941
  108                      349.75       0.00       0.00      20.38     314.72      14.60     329.32        1.94     0.11   0.942
  109                      349.75       0.00       0.00      20.39     314.55      14.59     329.14        6.62     0.36   0.941
  110                      349.75       0.00       0.00      20.40     314.40      14.58     328.98       20.96     1.14   0.941
  111                      349.75       0.00       0.00      20.37     314.77      14.61     329.38        0.66     0.04   0.942
  112                      349.75       0.00       0.00      20.38     314.73      14.60     329.34        1.09     0.06   0.942
  113                      349.75       0.00       0.00      20.38     314.60      14.60     329.20        5.07     0.27   0.941
  114                      349.75       0.00       0.00      20.38     314.61      14.60     329.21       11.16     0.60   0.941
  115                      349.75       0.00       0.00      20.39     314.56      14.59     329.15        1.45     0.08   0.941
  116                      349.75       0.00       0.00      20.37     314.74      14.60     329.34        0.82     0.04   0.942
  117                      349.75       0.00       0.00      20.39     314.53      14.59     329.12        1.91     0.10   0.941
  118                      349.75       0.00       0.00      20.38     314.69      14.60     329.29        0.72     0.04   0.941
  119                      349.75       0.00       0.00      20.39     314.43      14.58     329.01        7.21     0.39   0.941
  120                      349.75       0.00       0.00      20.37     314.74      14.61     329.35        0.79     0.04   0.942
  121                      349.75       0.00       0.00      20.38     314.57      14.59     329.16        2.80     0.15   0.941
  122                      349.75       0.00       0.00     143.69     104.90     101.14     206.04        1.87     0.14   0.589
  123                      349.75       0.00       0.00     143.11     104.92     101.72     206.65        1.16     0.09   0.591
  124                      349.75       0.00       0.00     144.30     104.87     100.53     205.40        5.11     0.38   0.587
  125                      349.75       0.00       0.00      20.38     314.62      14.60     329.22        0.86     0.05   0.941
  126                      349.75       0.00       0.00      20.38     314.70      14.60     329.30        0.59     0.03   0.942
  127                      349.75       0.00       0.00     144.57     104.86     100.26     205.12        7.02     0.52   0.586
  130                      349.75       0.00       0.00      20.39     314.56      14.59     329.15        3.00     0.16   0.941
  131                      349.75       0.00       0.00      40.79     279.67      29.16     308.84        1.76     0.10   0.883
  132                      349.75       0.00       0.00      40.79     279.66      29.16     308.82        0.99     0.06   0.883
  133                      349.75       0.00       0.00      20.37     314.80      14.61     329.40        0.40     0.02   0.942
  134                      349.75       0.00       0.00      20.38     314.60      14.60     329.20        5.89     0.32   0.941
  135                      349.75       0.00       0.00      20.38     314.73      14.60     329.33        0.53     0.03   0.942
  136                      349.75       0.00       0.00      20.38     314.73      14.60     329.33        0.36     0.02   0.942
  187                      349.75       0.00       0.00      20.48     313.20      14.49     327.69       20.87     1.11   0.937
  
  
  ******************
  Node Depth Summary
  ******************
  
  ---------------------------------------------------------------------------------
                                 Average  Maximum  Maximum  Time of Max    Reported
                                   Depth    Depth      HGL   Occurrence   Max Depth
  Node                 Type       Meters   Meters   Meters  days hr:min      Meters
  ---------------------------------------------------------------------------------
  4235-810             JUNCTION     0.09     0.20    14.08     0  14:00        0.20
  4235-811             JUNCTION     0.28     0.49    14.08     0  13:45        0.49
  4334-809             JUNCTION     0.50     0.70    14.07     0  13:55        0.70
  4335-01              JUNCTION     0.91     1.13    13.67     0  01:02        1.04
  4335-02              JUNCTION     1.05     1.31    13.71     0  01:01        1.18
  4335-03              JUNCTION     1.16     1.42    13.71     0  01:01        1.29
  4335-04              JUNCTION     1.20     1.60    13.84     0  11:32        1.43
  4335-05              JUNCTION     1.11     1.95    14.27     0  13:53        1.53
  4335-06              JUNCTION     1.43     2.00    14.02     0  13:27        1.72
  4335-07              JUNCTION     1.33     1.55    13.66     0  01:00        1.48
  4335-08              JUNCTION     1.56     1.78    13.66     0  01:00        1.73
  4335-09              JUNCTION     0.98     1.37    13.87     0  11:36        1.20
  4335-10              JUNCTION     1.57     1.89    13.79     0  11:36        1.70
  4335-11              JUNCTION     1.54     1.71    13.61     0  11:24        1.63
  4335-12              JUNCTION     2.33     2.50    13.60     0  00:56        2.42
  4335-13              JUNCTION     0.11     0.30    13.77     0  13:59        0.29
  4335-14              JUNCTION     0.46     0.84    13.84     0  01:02        0.70
  4335-504             JUNCTION     0.39     0.59    13.76     0  13:41        0.57
  4335-505             JUNCTION     0.56     0.69    13.69     0  13:43        0.66
  4335-506             JUNCTION     0.05     0.10    14.05     0  14:00        0.10
  4335-507             JUNCTION     0.17     0.25    14.20     0  14:00        0.25
  4335-508             JUNCTION     0.06     0.12    14.26     0  14:00        0.12
  4335-801             JUNCTION     1.80     2.34    14.28     0  13:44        2.33
  4335-802             JUNCTION     2.10     2.34    13.66     0  01:02        2.24
  4335-803             JUNCTION     1.03     1.24    13.66     0  01:01        1.15
  4335-804             JUNCTION     1.31     1.51    13.64     0  01:02        1.46
  4335-805             JUNCTION     1.61     1.92    13.74     0  00:59        1.77
  4335-806             JUNCTION     1.84     2.01    13.61     0  01:00        1.99
  4335-807             JUNCTION     0.86     1.09    13.69     0  11:06        1.01
  4335-807a            JUNCTION     0.96     1.12    13.62     0  11:04        1.10
  4335-808             JUNCTION     1.19     1.32    13.58     0  11:55        1.30
  4335-809             JUNCTION     2.16     2.31    13.58     0  13:56        2.27
  4335-811             JUNCTION     2.36     2.50    13.57     0  13:56        2.46
  4335-812             JUNCTION     0.05     0.13    13.92     0  13:55        0.13
  4335-813             JUNCTION     1.70     1.82    13.61     0  13:55        1.79
  4335-814             JUNCTION     0.66     0.76    13.60     0  13:55        0.73
  4335-815             JUNCTION     0.68     0.80    13.62     0  13:55        0.74
  4335-816             JUNCTION     0.99     1.31    13.80     0  13:56        1.17
  4335-817             JUNCTION     1.34     1.70    13.84     0  13:57        1.52
  4335-818             JUNCTION     1.68     1.90    13.69     0  13:58        1.82
  4335-819             JUNCTION     1.76     1.96    13.67     0  13:46        1.90
  4335-820             JUNCTION     1.92     2.43    13.97     0  11:33        2.05
  4335-821             JUNCTION     2.09     2.28    13.65     0  00:56        2.24
  4335-823             JUNCTION     2.08     2.21    13.63     0  13:26        2.17
  4335-824             JUNCTION     2.77     2.97    13.69     0  13:41        2.90
  4335-825             JUNCTION     2.47     2.55    13.51     0  14:27        2.55
  4335-826             JUNCTION     2.46     2.55    13.51     0  00:59        2.54
  4335-827             JUNCTION     1.18     1.62    13.94     0  11:36        1.29
  4335-828             JUNCTION     0.87     1.31    13.94     0  11:36        1.04
  4335-829             JUNCTION     1.09     1.58    14.07     0  11:36        1.57
  4335-830             JUNCTION     0.56     1.13    14.11     0  11:36        1.10
  4335-831             JUNCTION     0.26     0.77    14.13     0  13:59        0.77
  4335-835             JUNCTION     0.29     0.46    14.02     0  13:45        0.46
  4336-801             JUNCTION     0.04     0.24    14.30     0  14:00        0.24
  4434-31              JUNCTION     0.20     0.47    14.66     0  13:20        0.45
  4434-32              JUNCTION     0.23     0.57    14.65     0  13:20        0.54
  4434-33              JUNCTION     0.40     0.73    14.65     0  13:20        0.68
  4434-34              JUNCTION     0.16     0.38    14.20     0  13:21        0.34
  4435-03              JUNCTION     0.16     0.32    15.48     0  14:00        0.32
  4435-04              JUNCTION     0.24     0.50    15.41     0  08:34        0.46
  4435-05              JUNCTION     1.71     2.37    15.41     0  08:34        2.33
  4435-501             JUNCTION     0.07     0.16    17.48     0  14:00        0.16
  4435-502             JUNCTION     0.08     0.18    16.31     0  14:00        0.18
  4435-503             JUNCTION     0.43     0.76    15.41     0  13:16        0.75
  4435-504             JUNCTION     0.48     0.82    15.41     0  08:34        0.80
  4435-505             JUNCTION     0.52     0.97    15.44     0  00:53        0.92
  4435-506             JUNCTION     0.79     2.09    16.16     0  00:44        1.31
  4435-507             JUNCTION     0.37     0.96    15.81     0  13:59        0.96
  4435-508             JUNCTION     0.76     1.30    16.15     0  14:00        1.30
  4435-509             JUNCTION     0.78     1.87    16.76     0  13:05        1.73
  4435-510             JUNCTION     0.08     0.19    16.94     0  14:00        0.19
  4435-801             JUNCTION     0.66     1.68    18.79     0  14:00        1.68
  4435-802             JUNCTION     1.12     2.07    18.61     0  14:00        2.06
  4435-803             JUNCTION     1.41     2.20    18.42     0  14:00        2.20
  4435-804             JUNCTION     0.31     0.91    17.66     0  14:00        0.91
  4435-805             JUNCTION     0.44     1.18    17.35     0  14:00        1.18
  4435-806             JUNCTION     0.23     0.61    16.59     0  14:00        0.61
  4435-807             JUNCTION     1.04     1.92    15.68     0  08:32        1.70
  4435-808             JUNCTION     0.97     1.77    15.61     0  08:23        1.54
  4435-808a            JUNCTION     1.77     2.42    15.40     0  00:55        2.39
  4435-809             JUNCTION     1.80     2.42    15.37     0  00:38        2.42
  4435-810             JUNCTION     1.84     2.49    15.40     0  08:33        2.46
  4435-811             JUNCTION     1.15     1.79    15.41     0  08:34        1.76
  4435-812             JUNCTION     0.45     0.86    15.41     0  08:34        0.83
  4435-813             JUNCTION     0.64     1.06    15.43     0  08:34        1.01
  4435-814             JUNCTION     0.43     0.84    15.44     0  08:34        0.78
  4435-815             JUNCTION     1.45     2.56    16.77     0  09:35        2.56
  4435-816             JUNCTION     0.97     2.03    16.70     0  10:03        2.03
  4435-817             JUNCTION     0.81     1.85    16.71     0  13:05        1.83
  4435-818             JUNCTION     1.29     2.36    16.63     0  10:04        2.36
  4435-819             JUNCTION     1.21     2.23    16.50     0  13:57        2.22
  4435-820             JUNCTION     1.21     2.12    16.22     0  13:38        2.11
  4435-822             JUNCTION     1.03     1.69    15.58     0  13:38        1.67
  4435-823             JUNCTION     1.32     2.83    16.46     0  16:02        2.13
  4435-821             JUNCTION     1.10     1.84    15.85     0  13:38        1.82
  4435-824             JUNCTION     1.11     1.92    15.75     0  13:10        1.87
  4435-825             JUNCTION     0.86     1.64    15.72     0  13:07        1.62
  4435-826             JUNCTION     0.51     1.17    15.70     0  13:59        1.17
  4435-829             JUNCTION     1.13     1.78    15.56     0  13:59        1.78
  4435-830             JUNCTION     1.90     2.63    15.48     0  00:38        2.52
  4435-827             JUNCTION     0.49     1.14    15.70     0  13:59        1.14
  4435-831             JUNCTION     1.83     2.68    14.95     0  13:57        2.68
  4435-832             JUNCTION     0.16     0.41    14.15     0  13:59        0.41
  4435-833             JUNCTION     0.15     0.39    14.30     0  13:59        0.39
  4535-511             JUNCTION     0.10     0.21    17.71     0  14:00        0.21
  4535-512             JUNCTION     0.17     0.38    16.86     0  14:00        0.38
  4535-513             JUNCTION     0.15     0.33    16.61     0  14:00        0.33
  4535-514             JUNCTION     0.32     0.74    16.23     0  14:00        0.74
  4535-817             JUNCTION     0.94     2.21    17.04     0  13:36        2.20
  4535-818             JUNCTION     1.09     2.38    17.03     0  13:58        2.37
  4535-819             JUNCTION     1.17     2.36    16.90     0  10:01        2.36
  4535-820             JUNCTION     0.47     1.07    15.90     0  14:00        1.07
  4535-821             JUNCTION     0.46     1.06    15.88     0  13:59        1.06
  4535-822             JUNCTION     0.43     1.02    15.81     0  13:59        1.02
  4535-823             JUNCTION     0.39     0.98    15.81     0  14:00        0.98
  4535-F551            JUNCTION     0.15     0.36    16.17     0  14:00        0.36
  4536-01              JUNCTION     0.15     0.64    19.13     0  14:00        0.64
  4536-02              JUNCTION     0.56     1.59    19.11     0  13:59        1.59
  4536-03              JUNCTION     0.27     1.44    19.04     0  14:00        1.44
  4536-04              JUNCTION     0.68     1.88    19.01     0  14:00        1.88
  F4335-825a           JUNCTION     2.54     2.62    13.50     0  00:56        2.62
  F4335-825b           JUNCTION     2.24     2.36    13.58     0  13:47        2.34
  F4435-05a            JUNCTION     1.75     2.67    15.67     0  08:23        2.37
  F4435-816a           JUNCTION     1.38     2.46    16.70     0  10:03        2.46
  MH04649601           JUNCTION     1.09     3.35    15.79     0  11:03        1.35
  MH04649602           JUNCTION     1.43     3.57    15.66     0  00:53        1.64
  MH04649701           JUNCTION     0.81     1.12    13.86     0  13:13        1.06
  MH05640601           JUNCTION     2.77     2.97    13.69     0  13:41        2.90
  MH05640604           JUNCTION     1.01     2.15    16.85     0  00:00        1.01
  MH05640605           JUNCTION     1.81     2.72    14.42     0  00:53        1.95
  MH05647801           JUNCTION     1.60     2.35    15.16     0  13:59        2.34
  POND3                JUNCTION     3.24     3.45    13.70     0  13:41        3.37
  MH05640504           OUTFALL      1.01     1.01    15.71     0  00:00        1.01
  
  
  *******************
  Node Inflow Summary
  *******************
  
  -------------------------------------------------------------------------------------------------
                                  Maximum  Maximum                  Lateral       Total        Flow
                                  Lateral    Total  Time of Max      Inflow      Inflow     Balance
                                   Inflow   Inflow   Occurrence      Volume      Volume       Error
  Node                 Type           CMS      CMS  days hr:min    10^6 ltr    10^6 ltr     Percent
  -------------------------------------------------------------------------------------------------
  4235-810             JUNCTION     0.162    0.162     0  14:00           3           3      -0.001
  4235-811             JUNCTION     0.100    0.262     0  14:00        1.76        4.76       0.120
  4334-809             JUNCTION     0.316    0.974     0  13:21        5.83        16.6       0.233
  4335-01              JUNCTION     0.000    3.165     0  00:48           0        81.2       0.278
  4335-02              JUNCTION     0.114    4.885     0  13:37        2.11         111       0.275
  4335-03              JUNCTION     0.370    4.575     0  13:43        5.59         108       0.266
  4335-04              JUNCTION     0.000   11.622     0  11:32           0         139       0.036
  4335-05              JUNCTION     0.000   20.567     0  13:53           0         209       0.292
  4335-06              JUNCTION     0.228   16.473     0  13:46        3.43         182       0.083
  4335-07              JUNCTION     0.222    8.237     0  13:50        3.34         115       0.255
  4335-08              JUNCTION     0.044    5.919     0  13:25       0.772         116       0.340
  4335-09              JUNCTION     0.502    4.077     0  13:56        6.61        69.3      -0.002
  4335-10              JUNCTION     0.000    4.919     0  13:56           0        69.3       0.345
  4335-11              JUNCTION     0.000    3.637     0  13:59           0        68.7       0.389
  4335-12              JUNCTION     0.150    4.295     0  11:37        2.77        71.2       0.299
  4335-13              JUNCTION     0.263    1.138     0  13:59        3.98        20.1       0.058
  4335-14              JUNCTION     0.000    1.769     0  11:44           0        28.6       0.159
  4335-504             JUNCTION     0.021    0.456     0  10:03       0.395        7.27       0.236
  4335-505             JUNCTION     0.319    1.133     0  13:44        5.89        14.4       0.143
  4335-506             JUNCTION     0.000    0.048     0  14:00           0       0.888       0.002
  4335-507             JUNCTION     0.020    0.048     0  14:00       0.362       0.889       0.152
  4335-508             JUNCTION     0.029    0.029     0  14:00       0.527       0.527       0.025
  4335-801             JUNCTION     0.194    2.483     0  13:59        3.59         103       0.500
  4335-802             JUNCTION     0.000    4.688     0  00:48           0         108       1.025
  4335-803             JUNCTION     0.170    2.761     0  00:44        3.13        34.7       1.669
  4335-804             JUNCTION     0.401    2.418     0  01:03         7.4          40       2.017
  4335-805             JUNCTION     0.079    2.886     0  01:02        1.45        39.6       2.226
  4335-806             JUNCTION     0.068    7.724     0  13:28        1.25         172       0.172
  4335-807             JUNCTION     0.000    0.237     0  11:06           0        1.11       1.078
  4335-807a            JUNCTION     0.046    7.683     0  13:26       0.856         159       0.141
  4335-808             JUNCTION     0.216    7.101     0  13:49        3.98         162       0.229
  4335-809             JUNCTION     0.000    6.492     0  13:49           0         162       0.215
  4335-811             JUNCTION     0.763    7.261     0  13:49        12.2         174       0.124
  4335-812             JUNCTION     0.050    0.956     0  13:55       0.922        17.5       0.002
  4335-813             JUNCTION     0.029    0.981     0  13:55       0.527          18       0.815
  4335-814             JUNCTION     0.020    1.017     0  13:22       0.362        18.4       0.263
  4335-815             JUNCTION     0.016    1.604     0  13:56       0.278        19.5       0.392
  4335-816             JUNCTION     0.071    4.763     0  13:56        1.32          34       0.370
  4335-817             JUNCTION     0.073    6.008     0  13:57         1.3        39.6       0.494
  4335-818             JUNCTION     0.050    3.597     0  13:38       0.922        27.2       0.846
  4335-819             JUNCTION     0.045    2.511     0  13:59       0.823        26.1       0.808
[...]
   09/10/2004 23:39:00      0.141     0.790     0.112     0.102
   09/11/2004 00:39:00      0.025     0.384     0.041     0.037
   09/11/2004 01:39:00      0.344     1.120     0.192     0.174
   09/11/2004 02:39:00      0.386     1.165     0.207     0.188
   09/11/2004 03:39:00      0.622     1.374     0.283     0.257
   09/11/2004 04:39:00      0.708     1.435     0.308     0.280
   09/11/2004 05:39:00      0.181     0.859     0.131     0.120
   09/11/2004 06:39:00      0.873     1.545     0.353     0.321
   09/11/2004 07:39:00      0.208     0.908     0.143     0.130
   09/11/2004 08:39:00      0.241     0.965     0.156     0.142
   09/11/2004 09:39:00      0.158     0.815     0.121     0.110
   09/11/2004 10:39:00      0.135     0.770     0.110     0.100
   09/11/2004 11:39:00      0.027     0.402     0.043     0.039
   09/11/2004 12:39:00      0.011     0.249     0.027     0.024
   09/11/2004 13:39:00      0.009     0.227     0.026     0.024
   09/11/2004 14:39:00      0.004     0.115     0.020     0.018
  
  
  <<< Link 4335-505.1 >>>
  ----------------------------------------------------------------
                             Flow  Velocity     Depth  Capacity/
  Date        Time            CMS     m/sec    meters   Setting 
  ----------------------------------------------------------------
   09/10/2004 17:39:00      0.342     0.522     0.676     0.580
   09/10/2004 18:39:00      0.096     0.143     0.688     0.593
   09/10/2004 19:39:00     -0.012    -0.018     0.695     0.600
   09/10/2004 20:39:00      0.004     0.006     0.699     0.604
   09/10/2004 21:39:00     -0.019    -0.029     0.690     0.595
   09/10/2004 22:39:00      0.045     0.065     0.699     0.604
   09/10/2004 23:39:00      0.140     0.201     0.711     0.617
   09/11/2004 00:39:00      0.036     0.053     0.693     0.598
   09/11/2004 01:39:00      0.252     0.379     0.683     0.588
   09/11/2004 02:39:00      0.476     0.604     0.789     0.697
   09/11/2004 03:39:00      0.339     0.494     0.700     0.606
   09/11/2004 04:39:00      0.792     1.083     0.740     0.647
   09/11/2004 05:39:00      0.356     0.495     0.729     0.636
   09/11/2004 06:39:00      0.633     0.883     0.727     0.634
   09/11/2004 07:39:00      0.425     0.600     0.719     0.625
   09/11/2004 08:39:00      0.273     0.407     0.689     0.594
   09/11/2004 09:39:00      0.181     0.252     0.729     0.636
   09/11/2004 10:39:00      0.193     0.271     0.722     0.628
   09/11/2004 11:39:00      0.027     0.040     0.695     0.600
   09/11/2004 12:39:00      0.013     0.019     0.697     0.602
   09/11/2004 13:39:00     -0.001    -0.002     0.697     0.602
   09/11/2004 14:39:00      0.007     0.010     0.693     0.598
  
  
  <<< Link 04649701.1 >>>
  ----------------------------------------------------------------
                             Flow  Velocity     Depth  Capacity/
  Date        Time            CMS     m/sec    meters   Setting 
  ----------------------------------------------------------------
   09/10/2004 17:39:00      0.303     0.307     0.975     0.870
   09/10/2004 18:39:00      0.012     0.012     0.954     0.853
   09/10/2004 19:39:00      0.007     0.008     0.977     0.871
   09/10/2004 20:39:00      0.005     0.005     0.978     0.873
   09/10/2004 21:39:00     -0.003    -0.003     0.968     0.864
   09/10/2004 22:39:00      0.021     0.021     0.977     0.872
   09/10/2004 23:39:00     -0.011    -0.011     0.988     0.881
   09/11/2004 00:39:00     -0.042    -0.042     0.977     0.872
   09/11/2004 01:39:00      0.251     0.265     0.934     0.835
   09/11/2004 02:39:00      0.309     0.280     1.130     0.977
   09/11/2004 03:39:00      0.308     0.330     0.923     0.826
   09/11/2004 04:39:00      0.753     0.757     0.986     0.880
   09/11/2004 05:39:00      0.135     0.132     1.021     0.907
   09/11/2004 06:39:00      0.520     0.537     0.959     0.856
   09/11/2004 07:39:00      0.139     0.139     0.995     0.886
   09/11/2004 08:39:00      0.244     0.257     0.941     0.841
   09/11/2004 09:39:00      0.074     0.071     1.046     0.925
   09/11/2004 10:39:00      0.114     0.110     1.035     0.917
   09/11/2004 11:39:00      0.037     0.038     0.971     0.867
   09/11/2004 12:39:00     -0.013    -0.013     0.975     0.870
   09/11/2004 13:39:00      0.013     0.013     0.977     0.872
   09/11/2004 14:39:00     -0.002    -0.002     0.972     0.867
  
  
  <<< Link 04649601.1 >>>
  ----------------------------------------------------------------
                             Flow  Velocity     Depth  Capacity/
  Date        Time            CMS     m/sec    meters   Setting 
  ----------------------------------------------------------------
   09/10/2004 17:39:00      0.207     0.186     1.146     0.984
   09/10/2004 18:39:00      0.063     0.056     1.152     0.986
   09/10/2004 19:39:00      0.017     0.015     1.169     0.993
   09/10/2004 20:39:00      0.004     0.003     1.161     0.990
   09/10/2004 21:39:00      0.005     0.005     1.158     0.989
   09/10/2004 22:39:00      0.052     0.046     1.163     0.990
   09/10/2004 23:39:00      0.143     0.128     1.159     0.989
   09/11/2004 00:39:00      0.024     0.022     1.174     0.995
   09/11/2004 01:39:00      0.265     0.239     1.135     0.979
   09/11/2004 02:39:00      0.326     0.288     1.200     1.000
   09/11/2004 03:39:00      0.588     0.529     1.145     0.983
   09/11/2004 04:39:00      0.406     0.362     1.163     0.991
   09/11/2004 05:39:00      0.085     0.076     1.179     0.996
   09/11/2004 06:39:00      0.713     0.638     1.159     0.989
   09/11/2004 07:39:00      0.096     0.085     1.173     0.994
   09/11/2004 08:39:00      0.120     0.108     1.150     0.986
   09/11/2004 09:39:00      0.143     0.126     1.200     1.000
   09/11/2004 10:39:00      0.092     0.082     1.200     1.000
   09/11/2004 11:39:00      0.004     0.004     1.159     0.989
   09/11/2004 12:39:00      0.010     0.009     1.161     0.990
   09/11/2004 13:39:00      0.001     0.001     1.165     0.991
   09/11/2004 14:39:00      0.010     0.009     1.162     0.990
  
  
  <<< Link 04649602.1 >>>
  ----------------------------------------------------------------
                             Flow  Velocity     Depth  Capacity/
  Date        Time            CMS     m/sec    meters   Setting 
  ----------------------------------------------------------------
   09/10/2004 17:39:00      0.207     0.183     1.200     1.000
   09/10/2004 18:39:00      0.064     0.056     1.200     1.000
   09/10/2004 19:39:00      0.017     0.015     1.200     1.000
   09/10/2004 20:39:00      0.003     0.003     1.200     1.000
   09/10/2004 21:39:00      0.006     0.005     1.200     1.000
   09/10/2004 22:39:00      0.052     0.046     1.200     1.000
   09/10/2004 23:39:00      0.143     0.127     1.200     1.000
   09/11/2004 00:39:00      0.025     0.022     1.200     1.000
   09/11/2004 01:39:00      0.263     0.233     1.200     1.000
   09/11/2004 02:39:00      0.327     0.289     1.200     1.000
   09/11/2004 03:39:00      0.588     0.520     1.200     1.000
   09/11/2004 04:39:00      0.404     0.357     1.200     1.000
   09/11/2004 05:39:00      0.084     0.074     1.200     1.000
   09/11/2004 06:39:00      0.714     0.632     1.200     1.000
   09/11/2004 07:39:00      0.095     0.084     1.200     1.000
   09/11/2004 08:39:00      0.121     0.107     1.200     1.000
   09/11/2004 09:39:00      0.142     0.126     1.200     1.000
   09/11/2004 10:39:00      0.091     0.081     1.200     1.000
   09/11/2004 11:39:00      0.004     0.003     1.200     1.000
   09/11/2004 12:39:00      0.011     0.010     1.200     1.000
   09/11/2004 13:39:00      0.001     0.000     1.200     1.000
   09/11/2004 14:39:00      0.010     0.009     1.200     1.000
  
  
  <<< Link 05640605.1 >>>
  ----------------------------------------------------------------
                             Flow  Velocity     Depth  Capacity/
  Date        Time            CMS     m/sec    meters   Setting 
  ----------------------------------------------------------------
   09/10/2004 17:39:00      0.207     0.183     1.200     1.000
   09/10/2004 18:39:00      0.064     0.056     1.200     1.000
   09/10/2004 19:39:00      0.017     0.015     1.200     1.000
   09/10/2004 20:39:00      0.003     0.003     1.200     1.000
   09/10/2004 21:39:00      0.006     0.005     1.200     1.000
   09/10/2004 22:39:00      0.052     0.046     1.200     1.000
   09/10/2004 23:39:00      0.143     0.127     1.200     1.000
   09/11/2004 00:39:00      0.025     0.022     1.200     1.000
   09/11/2004 01:39:00      0.263     0.233     1.200     1.000
   09/11/2004 02:39:00      0.328     0.290     1.200     1.000
   09/11/2004 03:39:00      0.588     0.520     1.200     1.000
   09/11/2004 04:39:00      0.404     0.357     1.200     1.000
   09/11/2004 05:39:00      0.084     0.074     1.200     1.000
   09/11/2004 06:39:00      0.714     0.631     1.200     1.000
   09/11/2004 07:39:00      0.095     0.084     1.200     1.000
   09/11/2004 08:39:00      0.121     0.107     1.200     1.000
   09/11/2004 09:39:00      0.142     0.126     1.200     1.000
   09/11/2004 10:39:00      0.091     0.081     1.200     1.000
   09/11/2004 11:39:00      0.004     0.003     1.200     1.000
   09/11/2004 12:39:00      0.011     0.010     1.200     1.000
   09/11/2004 13:39:00      0.000     0.000     1.200     1.000
   09/11/2004 14:39:00      0.010     0.009     1.200     1.000
  
  
  <<< Link 4335-802.2 >>>
  ----------------------------------------------------------------
                             Flow  Velocity     Depth  Capacity/
  Date        Time            CMS     m/sec    meters   Setting 
  ----------------------------------------------------------------
   09/10/2004 17:39:00      0.839     0.129     1.556     0.752
   09/10/2004 18:39:00      0.775     0.122     1.515     0.732
   09/10/2004 19:39:00      0.432     0.068     1.514     0.732
   09/10/2004 20:39:00      0.185     0.029     1.514     0.732
   09/10/2004 21:39:00      0.144     0.023     1.512     0.730
   09/10/2004 22:39:00      0.218     0.034     1.515     0.732
   09/10/2004 23:39:00      0.683     0.107     1.517     0.733
   09/11/2004 00:39:00      0.456     0.072     1.514     0.731
   09/11/2004 01:39:00      1.009     0.159     1.512     0.730
   09/11/2004 02:39:00      1.238     0.193     1.527     0.738
   09/11/2004 03:39:00      1.826     0.285     1.528     0.738
   09/11/2004 04:39:00      2.040     0.323     1.509     0.729
   09/11/2004 05:39:00      2.081     0.329     1.508     0.728
   09/11/2004 06:39:00      2.061     0.322     1.529     0.739
   09/11/2004 07:39:00      2.108     0.334     1.507     0.728
   09/11/2004 08:39:00      1.888     0.298     1.512     0.731
   09/11/2004 09:39:00      1.357     0.213     1.517     0.733
   09/11/2004 10:39:00      1.183     0.187     1.513     0.731
   09/11/2004 11:39:00      0.891     0.141     1.509     0.729
   09/11/2004 12:39:00      0.581     0.092     1.514     0.731
   09/11/2004 13:39:00      0.459     0.072     1.514     0.731
   09/11/2004 14:39:00      0.371     0.058     1.513     0.731
  
  
  <<< Link PUMP1@POND3-MH05640604 >>>
  ----------------------------------------------------------------
                             Flow  Velocity     Depth  Capacity/
  Date        Time            CMS     m/sec    meters   Setting 
  ----------------------------------------------------------------
   09/10/2004 17:39:00      0.030     0.000     0.000     1.000
   09/10/2004 18:39:00      0.030     0.000     0.000     1.000
   09/10/2004 19:39:00      0.030     0.000     0.000     1.000
   09/10/2004 20:39:00      0.030     0.000     0.000     1.000
   09/10/2004 21:39:00      0.030     0.000     0.000     1.000
   09/10/2004 22:39:00      0.030     0.000     0.000     1.000
   09/10/2004 23:39:00      0.030     0.000     0.000     1.000
   09/11/2004 00:39:00      0.030     0.000     0.000     1.000
   09/11/2004 01:39:00      0.030     0.000     0.000     1.000
   09/11/2004 02:39:00      0.030     0.000     0.000     1.000
   09/11/2004 03:39:00      0.030     0.000     0.000     1.000
   09/11/2004 04:39:00      0.030     0.000     0.000     1.000
   09/11/2004 05:39:00      0.030     0.000     0.000     1.000
   09/11/2004 06:39:00      0.030     0.000     0.000     1.000
   09/11/2004 07:39:00      0.030     0.000     0.000     1.000
   09/11/2004 08:39:00      0.030     0.000     0.000     1.000
   09/11/2004 09:39:00      0.030     0.000     0.000     1.000
   09/11/2004 10:39:00      0.030     0.000     0.000     1.000
   09/11/2004 11:39:00      0.030     0.000     0.000     1.000
   09/11/2004 12:39:00      0.030     0.000     0.000     1.000
   09/11/2004 13:39:00      0.030     0.000     0.000     1.000
   09/11/2004 14:39:00      0.030     0.000     0.000     1.000
  
  
  <<< Link PUMP2@POND3-MH05640604 >>>
  ----------------------------------------------------------------
                             Flow  Velocity     Depth  Capacity/
  Date        Time            CMS     m/sec    meters   Setting 
  ----------------------------------------------------------------
   09/10/2004 17:39:00      0.030     0.000     0.000     1.000
   09/10/2004 18:39:00      0.030     0.000     0.000     1.000
   09/10/2004 19:39:00      0.030     0.000     0.000     1.000
   09/10/2004 20:39:00      0.030     0.000     0.000     1.000
   09/10/2004 21:39:00      0.030     0.000     0.000     1.000
   09/10/2004 22:39:00      0.030     0.000     0.000     1.000
   09/10/2004 23:39:00      0.030     0.000     0.000     1.000
   09/11/2004 00:39:00      0.030     0.000     0.000     1.000
   09/11/2004 01:39:00      0.030     0.000     0.000     1.000
   09/11/2004 02:39:00      0.030     0.000     0.000     1.000
   09/11/2004 03:39:00      0.030     0.000     0.000     1.000
   09/11/2004 04:39:00      0.030     0.000     0.000     1.000
   09/11/2004 05:39:00      0.030     0.000     0.000     1.000
   09/11/2004 06:39:00      0.030     0.000     0.000     1.000
   09/11/2004 07:39:00      0.030     0.000     0.000     1.000
   09/11/2004 08:39:00      0.030     0.000     0.000     1.000
   09/11/2004 09:39:00      0.030     0.000     0.000     1.000
   09/11/2004 10:39:00      0.030     0.000     0.000     1.000
   09/11/2004 11:39:00      0.030     0.000     0.000     1.000
   09/11/2004 12:39:00      0.030     0.000     0.000     1.000
   09/11/2004 13:39:00      0.030     0.000     0.000     1.000
   09/11/2004 14:39:00      0.030     0.000     0.000     1.000
  
  
  <<< Link PUMP3@POND3-MH05640604 >>>
  ----------------------------------------------------------------
                             Flow  Velocity     Depth  Capacity/
  Date        Time            CMS     m/sec    meters   Setting 
  ----------------------------------------------------------------
   09/10/2004 17:39:00      0.030     0.000     0.000     1.000
   09/10/2004 18:39:00      0.030     0.000     0.000     1.000
   09/10/2004 19:39:00      0.030     0.000     0.000     1.000
   09/10/2004 20:39:00      0.030     0.000     0.000     1.000
   09/10/2004 21:39:00      0.030     0.000     0.000     1.000
   09/10/2004 22:39:00      0.030     0.000     0.000     1.000
   09/10/2004 23:39:00      0.030     0.000     0.000     1.000
   09/11/2004 00:39:00      0.030     0.000     0.000     1.000
   09/11/2004 01:39:00      0.030     0.000     0.000     1.000
   09/11/2004 02:39:00      0.030     0.000     0.000     1.000
   09/11/2004 03:39:00      0.030     0.000     0.000     1.000
   09/11/2004 04:39:00      0.030     0.000     0.000     1.000
   09/11/2004 05:39:00      0.030     0.000     0.000     1.000
   09/11/2004 06:39:00      0.030     0.000     0.000     1.000
   09/11/2004 07:39:00      0.030     0.000     0.000     1.000
   09/11/2004 08:39:00      0.030     0.000     0.000     1.000
   09/11/2004 09:39:00      0.030     0.000     0.000     1.000
   09/11/2004 10:39:00      0.030     0.000     0.000     1.000
   09/11/2004 11:39:00      0.030     0.000     0.000     1.000
   09/11/2004 12:39:00      0.030     0.000     0.000     1.000
   09/11/2004 13:39:00      0.030     0.000     0.000     1.000
   09/11/2004 14:39:00      0.030     0.000     0.000     1.000
  
  
  <<< Link PUMP4@POND3-MH05640604 >>>
  ----------------------------------------------------------------
                             Flow  Velocity     Depth  Capacity/
  Date        Time            CMS     m/sec    meters   Setting 
  ----------------------------------------------------------------
   09/10/2004 17:39:00      0.030     0.000     0.000     1.000
   09/10/2004 18:39:00      0.030     0.000     0.000     1.000
   09/10/2004 19:39:00      0.030     0.000     0.000     1.000
   09/10/2004 20:39:00      0.030     0.000     0.000     1.000
   09/10/2004 21:39:00      0.030     0.000     0.000     1.000
   09/10/2004 22:39:00      0.030     0.000     0.000     1.000
   09/10/2004 23:39:00      0.030     0.000     0.000     1.000
   09/11/2004 00:39:00      0.030     0.000     0.000     1.000
   09/11/2004 01:39:00      0.030     0.000     0.000     1.000
   09/11/2004 02:39:00      0.030     0.000     0.000     1.000
   09/11/2004 03:39:00      0.030     0.000     0.000     1.000
   09/11/2004 04:39:00      0.030     0.000     0.000     1.000
   09/11/2004 05:39:00      0.030     0.000     0.000     1.000
   09/11/2004 06:39:00      0.030     0.000     0.000     1.000
   09/11/2004 07:39:00      0.030     0.000     0.000     1.000
   09/11/2004 08:39:00      0.030     0.000     0.000     1.000
   09/11/2004 09:39:00      0.030     0.000     0.000     1.000
   09/11/2004 10:39:00      0.030     0.000     0.000     1.000
   09/11/2004 11:39:00      0.030     0.000     0.000     1.000
   09/11/2004 12:39:00      0.030     0.000     0.000     1.000
   09/11/2004 13:39:00      0.030     0.000     0.000     1.000
   09/11/2004 14:39:00      0.030     0.000     0.000     1.000
  
  
  <<< Link PUMP5@F4335-825a-4335-823 >>>
  ----------------------------------------------------------------
                             Flow  Velocity     Depth  Capacity/
  Date        Time            CMS     m/sec    meters   Setting 
  ----------------------------------------------------------------
   09/10/2004 17:39:00     12.000     0.000     0.000     1.000
   09/10/2004 18:39:00     12.000     0.000     0.000     1.000
   09/10/2004 19:39:00     12.000     0.000     0.000     1.000
   09/10/2004 20:39:00     12.000     0.000     0.000     1.000
   09/10/2004 21:39:00     12.000     0.000     0.000     1.000
   09/10/2004 22:39:00     12.000     0.000     0.000     1.000
   09/10/2004 23:39:00     12.000     0.000     0.000     1.000
   09/11/2004 00:39:00     12.000     0.000     0.000     1.000
   09/11/2004 01:39:00     12.000     0.000     0.000     1.000
   09/11/2004 02:39:00     12.000     0.000     0.000     1.000
   09/11/2004 03:39:00     12.000     0.000     0.000     1.000
   09/11/2004 04:39:00     12.000     0.000     0.000     1.000
   09/11/2004 05:39:00     12.000     0.000     0.000     1.000
   09/11/2004 06:39:00     12.000     0.000     0.000     1.000
   09/11/2004 07:39:00     12.000     0.000     0.000     1.000
   09/11/2004 08:39:00     12.000     0.000     0.000     1.000
   09/11/2004 09:39:00     12.000     0.000     0.000     1.000
   09/11/2004 10:39:00     12.000     0.000     0.000     1.000
   09/11/2004 11:39:00     12.000     0.000     0.000     1.000
   09/11/2004 12:39:00     12.000     0.000     0.000     1.000
   09/11/2004 13:39:00     12.000     0.000     0.000     1.000
   09/11/2004 14:39:00     12.000     0.000     0.000     1.000
  

  Analysis begun on:  Tue Jun 17 20:06:32 2025
  Analysis ended on:  Tue Jun 17 20:06:52 2025
  Total elapsed time: 00:00:20